UNC-0397-site1-ad4pose
  PyMOL2.5          3D                             0

 65 68  0  0  0  0  0  0  0  0999 V2000
  -18.4070   17.2640  -34.5190 N   0  0  0  0  0  0  0  0  0  0  0  0
  -16.5220   18.6790  -34.4750 N   0  0  0  0  0  0  0  0  0  0  0  0
  -16.3950   16.5870  -33.5310 N   0  0  0  0  0  0  0  0  0  0  0  0
  -16.1310   14.4800  -32.5080 N   0  0  0  0  0  0  0  0  0  0  0  0
  -12.5270   13.7980  -27.5350 N   0  0  0  0  0  0  0  0  0  0  0  0
  -20.8360   14.4970  -34.4450 C   0  0  0  0  0  0  0  0  0  0  0  0
  -20.2360   15.7550  -34.6660 C   0  0  0  0  0  0  0  0  0  0  0  0
  -18.9560   16.0760  -34.2150 C   0  0  0  0  0  0  0  0  0  0  0  0
  -17.1350   17.4910  -34.1790 C   0  0  0  0  0  0  0  0  0  0  0  0
  -17.1920   19.7690  -35.1510 C   0  0  0  0  0  0  0  0  0  0  0  0
  -16.1450   20.2760  -36.1390 C   0  0  0  0  0  0  0  0  0  0  0  0
  -14.8230   19.9890  -35.4450 C   0  0  0  0  0  0  0  0  0  0  0  0
  -15.0830   18.6880  -34.6860 C   0  0  0  0  0  0  0  0  0  0  0  0
  -16.9490   15.4300  -33.1540 C   0  0  0  0  0  0  0  0  0  0  0  0
  -18.2700   15.1050  -33.4900 C   0  0  0  0  0  0  0  0  0  0  0  0
  -18.9130   13.8970  -33.1480 C   0  0  0  0  0  0  0  0  0  0  0  0
  -20.1940   13.5780  -33.6150 C   0  0  0  0  0  0  0  0  0  0  0  0
  -23.1580   14.1810  -34.1390 C   0  0  0  0  0  0  0  0  0  0  0  0
  -20.9330   12.1510  -31.8040 C   0  0  0  0  0  0  0  0  0  0  0  0
  -14.7900   14.9700  -32.1870 C   0  0  0  0  0  0  0  0  0  0  0  0
  -13.7870   13.8200  -32.2150 C   0  0  0  0  0  0  0  0  0  0  0  0
  -13.8960   12.9290  -30.9790 C   0  0  0  0  0  0  0  0  0  0  0  0
  -13.7920   13.7550  -29.6990 C   0  0  0  0  0  0  0  0  0  0  0  0
  -12.4890   13.4330  -28.9580 C   0  0  0  0  0  0  0  0  0  0  0  0
  -11.2060   14.2740  -27.0850 C   0  0  0  0  0  0  0  0  0  0  0  0
  -10.4530   13.0170  -26.6910 C   0  0  0  0  0  0  0  0  0  0  0  0
  -11.5280   12.1550  -26.0600 C   0  0  0  0  0  0  0  0  0  0  0  0
  -12.8420   12.6680  -26.6420 C   0  0  0  0  0  0  0  0  0  0  0  0
  -22.0360   14.1690  -35.0280 O   0  0  0  0  0  0  0  0  0  0  0  0
  -20.5830   12.3500  -33.1670 O   0  0  0  0  0  0  0  0  0  0  0  0
  -20.7988   16.5104  -35.2143 H   0  0  0  0  0  0  0  0  0  0  0  0
  -18.3963   13.1894  -32.4996 H   0  0  0  0  0  0  0  0  0  0  0  0
  -17.5379   20.5432  -34.4662 H   0  0  0  0  0  0  0  0  0  0  0  0
  -18.0818   19.4163  -35.6725 H   0  0  0  0  0  0  0  0  0  0  0  0
  -16.2723   21.3305  -36.3839 H   0  0  0  0  0  0  0  0  0  0  0  0
  -16.2118   19.7402  -37.0859 H   0  0  0  0  0  0  0  0  0  0  0  0
  -14.5059   20.8014  -34.7912 H   0  0  0  0  0  0  0  0  0  0  0  0
  -14.0216   19.8612  -36.1726 H   0  0  0  0  0  0  0  0  0  0  0  0
  -14.7359   17.8104  -35.2314 H   0  0  0  0  0  0  0  0  0  0  0  0
  -14.5520   18.6822  -33.7341 H   0  0  0  0  0  0  0  0  0  0  0  0
  -24.0251   13.7546  -34.6434 H   0  0  0  0  0  0  0  0  0  0  0  0
  -22.9266   13.5897  -33.2530 H   0  0  0  0  0  0  0  0  0  0  0  0
  -23.3780   15.2071  -33.8444 H   0  0  0  0  0  0  0  0  0  0  0  0
  -21.9680   11.8150  -31.7406 H   0  0  0  0  0  0  0  0  0  0  0  0
  -20.2792   11.3964  -31.3668 H   0  0  0  0  0  0  0  0  0  0  0  0
  -20.8219   13.0885  -31.2591 H   0  0  0  0  0  0  0  0  0  0  0  0
  -14.8013   15.4071  -31.1885 H   0  0  0  0  0  0  0  0  0  0  0  0
  -14.4963   15.7225  -32.9188 H   0  0  0  0  0  0  0  0  0  0  0  0
  -12.7855   14.2501  -32.2299 H   0  0  0  0  0  0  0  0  0  0  0  0
  -13.9709   13.2144  -33.1024 H   0  0  0  0  0  0  0  0  0  0  0  0
  -13.0770   12.2100  -30.9959 H   0  0  0  0  0  0  0  0  0  0  0  0
  -14.8559   12.4129  -30.9942 H   0  0  0  0  0  0  0  0  0  0  0  0
  -14.6350   13.5113  -29.0524 H   0  0  0  0  0  0  0  0  0  0  0  0
  -13.8090   14.8150  -29.9526 H   0  0  0  0  0  0  0  0  0  0  0  0
  -11.6984   14.0224  -29.4224 H   0  0  0  0  0  0  0  0  0  0  0  0
  -12.3003   12.3624  -29.0368 H   0  0  0  0  0  0  0  0  0  0  0  0
  -11.2838   14.9818  -26.2597 H   0  0  0  0  0  0  0  0  0  0  0  0
  -10.6897   14.7946  -27.8915 H   0  0  0  0  0  0  0  0  0  0  0  0
   -9.6141   13.2123  -26.0230 H   0  0  0  0  0  0  0  0  0  0  0  0
  -10.0216   12.5285  -27.5647 H   0  0  0  0  0  0  0  0  0  0  0  0
  -11.5127   12.2151  -24.9718 H   0  0  0  0  0  0  0  0  0  0  0  0
  -11.3784   11.1063  -26.3170 H   0  0  0  0  0  0  0  0  0  0  0  0
  -13.3494   11.8764  -27.1934 H   0  0  0  0  0  0  0  0  0  0  0  0
  -13.4995   13.0009  -25.8389 H   0  0  0  0  0  0  0  0  0  0  0  0
  -16.6120   14.1070  -31.6970 H   0  0  0  0  0  0  0  0  0  0  0  0
  1  9  2  0  0  0  0
  2 10  1  0  0  0  0
  2 13  1  0  0  0  0
  3 14  2  0  0  0  0
  4 20  1  0  0  0  0
  4 65  1  0  0  0  0
  5 25  1  0  0  0  0
  5 28  1  0  0  0  0
  6  7  2  0  0  0  0
  6 17  1  0  0  0  0
  6 29  1  0  0  0  0
  7  8  1  0  0  0  0
  7 31  1  0  0  0  0
  1  8  1  0  0  0  0
  8 15  2  0  0  0  0
  2  9  1  0  0  0  0
  3  9  1  0  0  0  0
 10 11  1  0  0  0  0
 10 33  1  0  0  0  0
 10 34  1  0  0  0  0
 11 12  1  0  0  0  0
 11 35  1  0  0  0  0
 11 36  1  0  0  0  0
 12 13  1  0  0  0  0
 12 37  1  0  0  0  0
 12 38  1  0  0  0  0
 13 39  1  0  0  0  0
 13 40  1  0  0  0  0
  4 14  1  0  0  0  0
 14 15  1  0  0  0  0
 15 16  1  0  0  0  0
 16 17  2  0  0  0  0
 16 32  1  0  0  0  0
 17 30  1  0  0  0  0
 18 29  1  0  0  0  0
 18 41  1  0  0  0  0
 18 42  1  0  0  0  0
 18 43  1  0  0  0  0
 19 44  1  0  0  0  0
 19 45  1  0  0  0  0
 19 46  1  0  0  0  0
 20 21  1  0  0  0  0
 20 47  1  0  0  0  0
 20 48  1  0  0  0  0
 21 22  1  0  0  0  0
 21 49  1  0  0  0  0
 21 50  1  0  0  0  0
 22 23  1  0  0  0  0
 22 51  1  0  0  0  0
 22 52  1  0  0  0  0
 23 24  1  0  0  0  0
 23 53  1  0  0  0  0
 23 54  1  0  0  0  0
  5 24  1  0  0  0  0
 24 55  1  0  0  0  0
 24 56  1  0  0  0  0
 25 26  1  0  0  0  0
 25 57  1  0  0  0  0
 25 58  1  0  0  0  0
 26 27  1  0  0  0  0
 26 59  1  0  0  0  0
 26 60  1  0  0  0  0
 27 28  1  0  0  0  0
 27 61  1  0  0  0  0
 27 62  1  0  0  0  0
 28 63  1  0  0  0  0
 28 64  1  0  0  0  0
 19 30  1  0  0  0  0
M  END
$$$$
