ligand_out_ligand_01
  PyMOL2.5          3D                             0

 65 68  0  0  0  0  0  0  0  0999 V2000
  -20.3380   15.3330  -30.1390 N   0  0  0  0  0  0  0  0  0  0  0  0
  -18.6460   16.5880  -29.0810 N   0  0  0  0  0  0  0  0  0  0  0  0
  -18.2110   14.4330  -29.7520 N   0  0  0  0  0  0  0  0  0  0  0  0
  -17.6340   12.2320  -30.3680 N   0  0  0  0  0  0  0  0  0  0  0  0
  -11.8370   12.9710  -28.4040 N   0  0  0  0  0  0  0  0  0  0  0  0
  -22.3920   12.9310  -32.0300 C   0  0  0  0  0  0  0  0  0  0  0  0
  -21.9670   14.0830  -31.3340 C   0  0  0  0  0  0  0  0  0  0  0  0
  -20.7170   14.1840  -30.7240 C   0  0  0  0  0  0  0  0  0  0  0  0
  -19.0890   15.4360  -29.6740 C   0  0  0  0  0  0  0  0  0  0  0  0
  -19.4800   17.7560  -28.8970 C   0  0  0  0  0  0  0  0  0  0  0  0
  -18.5550   18.9170  -29.2510 C   0  0  0  0  0  0  0  0  0  0  0  0
  -17.1750   18.4130  -28.8590 C   0  0  0  0  0  0  0  0  0  0  0  0
  -17.2320   16.9160  -29.1640 C   0  0  0  0  0  0  0  0  0  0  0  0
  -18.5950   13.2580  -30.2620 C   0  0  0  0  0  0  0  0  0  0  0  0
  -19.8790   13.0730  -30.7910 C   0  0  0  0  0  0  0  0  0  0  0  0
  -20.3480   11.8730  -31.3650 C   0  0  0  0  0  0  0  0  0  0  0  0
  -21.5990   11.7840  -31.9860 C   0  0  0  0  0  0  0  0  0  0  0  0
  -24.6560   13.6030  -32.1070 C   0  0  0  0  0  0  0  0  0  0  0  0
  -22.8570    9.7150  -31.9780 C   0  0  0  0  0  0  0  0  0  0  0  0
  -16.3510   12.5520  -29.7400 C   0  0  0  0  0  0  0  0  0  0  0  0
  -15.3170   12.9120  -30.8040 C   0  0  0  0  0  0  0  0  0  0  0  0
  -13.9890   13.3520  -30.1920 C   0  0  0  0  0  0  0  0  0  0  0  0
  -12.8530   12.4310  -30.6320 C   0  0  0  0  0  0  0  0  0  0  0  0
  -12.0680   11.9290  -29.4140 C   0  0  0  0  0  0  0  0  0  0  0  0
  -10.3920   13.1840  -28.1990 C   0  0  0  0  0  0  0  0  0  0  0  0
   -9.9920   12.1560  -27.1570 C   0  0  0  0  0  0  0  0  0  0  0  0
  -11.1890   12.1220  -26.2290 C   0  0  0  0  0  0  0  0  0  0  0  0
  -12.3590   12.6280  -27.0690 C   0  0  0  0  0  0  0  0  0  0  0  0
  -23.5680   12.9220  -32.7400 O   0  0  0  0  0  0  0  0  0  0  0  0
  -21.8080   10.5300  -32.4820 O   0  0  0  0  0  0  0  0  0  0  0  0
  -22.6469   14.9326  -31.2704 H   0  0  0  0  0  0  0  0  0  0  0  0
  -19.7156   10.9862  -31.3236 H   0  0  0  0  0  0  0  0  0  0  0  0
  -19.8867   17.8311  -27.8885 H   0  0  0  0  0  0  0  0  0  0  0  0
  -20.3427   17.7279  -29.5626 H   0  0  0  0  0  0  0  0  0  0  0  0
  -18.8261   19.8422  -28.7424 H   0  0  0  0  0  0  0  0  0  0  0  0
  -18.5998   19.1392  -30.3172 H   0  0  0  0  0  0  0  0  0  0  0  0
  -16.9311   18.6213  -27.8173 H   0  0  0  0  0  0  0  0  0  0  0  0
  -16.4003   18.9011  -29.4503 H   0  0  0  0  0  0  0  0  0  0  0  0
  -16.8036   16.6719  -30.1361 H   0  0  0  0  0  0  0  0  0  0  0  0
  -16.6593   16.3492  -28.4300 H   0  0  0  0  0  0  0  0  0  0  0  0
  -25.5331   12.9559  -32.0981 H   0  0  0  0  0  0  0  0  0  0  0  0
  -24.3810   13.8553  -31.0829 H   0  0  0  0  0  0  0  0  0  0  0  0
  -24.8840   14.5155  -32.6579 H   0  0  0  0  0  0  0  0  0  0  0  0
  -23.7419    9.8350  -32.6031 H   0  0  0  0  0  0  0  0  0  0  0  0
  -22.5440    8.6710  -31.9890 H   0  0  0  0  0  0  0  0  0  0  0  0
  -23.0913   10.0140  -30.9563 H   0  0  0  0  0  0  0  0  0  0  0  0
  -16.0008   11.6818  -29.1849 H   0  0  0  0  0  0  0  0  0  0  0  0
  -16.4814   13.3967  -29.0636 H   0  0  0  0  0  0  0  0  0  0  0  0
  -15.7107   13.7466  -31.3841 H   0  0  0  0  0  0  0  0  0  0  0  0
  -15.1422   12.0398  -31.4339 H   0  0  0  0  0  0  0  0  0  0  0  0
  -14.0741   13.3046  -29.1064 H   0  0  0  0  0  0  0  0  0  0  0  0
  -13.7679   14.3702  -30.5121 H   0  0  0  0  0  0  0  0  0  0  0  0
  -12.1781   12.9886  -31.2814 H   0  0  0  0  0  0  0  0  0  0  0  0
  -13.2688   11.5781  -31.1684 H   0  0  0  0  0  0  0  0  0  0  0  0
  -11.0913   11.6023  -29.7709 H   0  0  0  0  0  0  0  0  0  0  0  0
  -12.6274   11.1156  -28.9518 H   0  0  0  0  0  0  0  0  0  0  0  0
  -10.1678   14.2017  -27.8795 H   0  0  0  0  0  0  0  0  0  0  0  0
   -9.8441   13.0238  -29.1275 H   0  0  0  0  0  0  0  0  0  0  0  0
   -9.0616   12.4042  -26.6462 H   0  0  0  0  0  0  0  0  0  0  0  0
   -9.8223   11.1809  -27.6135 H   0  0  0  0  0  0  0  0  0  0  0  0
  -11.0324   12.7313  -25.3388 H   0  0  0  0  0  0  0  0  0  0  0  0
  -11.3769   11.1056  -25.8829 H   0  0  0  0  0  0  0  0  0  0  0  0
  -13.1319   11.8633  -27.1465 H   0  0  0  0  0  0  0  0  0  0  0  0
  -12.7972   13.5105  -26.6030 H   0  0  0  0  0  0  0  0  0  0  0  0
  -18.0240   11.3590  -30.0310 H   0  0  0  0  0  0  0  0  0  0  0  0
  1  8  1  0  0  0  0
  1  9  2  0  0  0  0
  2  9  1  0  0  0  0
  2 10  1  0  0  0  0
  2 13  1  0  0  0  0
  3  9  1  0  0  0  0
  3 14  2  0  0  0  0
  4 14  1  0  0  0  0
  4 20  1  0  0  0  0
  4 65  1  0  0  0  0
  5 25  1  0  0  0  0
  5 28  1  0  0  0  0
  6  7  2  0  0  0  0
  6 17  1  0  0  0  0
  6 29  1  0  0  0  0
  7  8  1  0  0  0  0
  7 31  1  0  0  0  0
  8 15  2  0  0  0  0
 10 11  1  0  0  0  0
 10 33  1  0  0  0  0
 10 34  1  0  0  0  0
 11 12  1  0  0  0  0
 11 35  1  0  0  0  0
 11 36  1  0  0  0  0
 12 13  1  0  0  0  0
 12 37  1  0  0  0  0
 12 38  1  0  0  0  0
 13 39  1  0  0  0  0
 13 40  1  0  0  0  0
 14 15  1  0  0  0  0
 15 16  1  0  0  0  0
 16 17  2  0  0  0  0
 16 32  1  0  0  0  0
 17 30  1  0  0  0  0
 18 29  1  0  0  0  0
 18 41  1  0  0  0  0
 18 42  1  0  0  0  0
 18 43  1  0  0  0  0
 19 30  1  0  0  0  0
 19 44  1  0  0  0  0
 19 45  1  0  0  0  0
 19 46  1  0  0  0  0
 20 21  1  0  0  0  0
 20 47  1  0  0  0  0
 20 48  1  0  0  0  0
 21 22  1  0  0  0  0
 21 49  1  0  0  0  0
 21 50  1  0  0  0  0
 22 23  1  0  0  0  0
 22 51  1  0  0  0  0
 22 52  1  0  0  0  0
 23 24  1  0  0  0  0
 23 53  1  0  0  0  0
 23 54  1  0  0  0  0
  5 24  1  0  0  0  0
 24 55  1  0  0  0  0
 24 56  1  0  0  0  0
 25 26  1  0  0  0  0
 25 57  1  0  0  0  0
 25 58  1  0  0  0  0
 26 27  1  0  0  0  0
 26 59  1  0  0  0  0
 26 60  1  0  0  0  0
 27 28  1  0  0  0  0
 27 61  1  0  0  0  0
 27 62  1  0  0  0  0
 28 63  1  0  0  0  0
 28 64  1  0  0  0  0
M  END
$$$$
