
 OpenBabel11072213583D

 42 45  0  0  0  0  0  0  0  0999 V2000
   -0.2279    9.4327    2.6281 C   0  0  0  0  0  0  0  0  0  0  0  0
   -0.2163    8.0816    2.8410 C   0  0  0  0  0  0  0  0  0  0  0  0
   -0.4716    7.1884    1.8731 N   0  0  0  0  0  0  0  0  0  0  0  0
   -0.7069    7.6494    0.6291 C   0  0  0  0  0  0  0  0  0  0  0  0
   -1.0773    6.7541   -0.3698 N   0  0  0  0  0  0  0  0  0  0  0  0
   -1.6332    5.4900   -0.1490 C   0  0  0  0  0  0  0  0  0  0  0  0
   -2.5785    5.3203    0.8641 C   0  0  0  0  0  0  0  0  0  0  0  0
   -3.1405    4.0699    1.1121 C   0  0  0  0  0  0  0  0  0  0  0  0
   -4.1431    3.9097    2.2222 C   0  0  0  0  0  0  0  0  0  0  0  0
   -3.6666    2.9695    3.2308 N   0  0  0  0  0  0  0  0  0  0  0  0
   -4.6288    2.8571    4.3244 C   0  0  0  0  0  0  0  0  0  0  0  0
   -4.1625    1.8583    5.3579 C   0  0  0  0  0  0  0  0  0  0  0  0
   -3.9234    0.5141    4.9821 C   0  0  0  0  0  0  0  0  0  0  0  0
   -3.5278   -0.4401    5.9226 C   0  0  0  0  0  0  0  0  0  0  0  0
   -3.3878   -0.0273    7.2286 C   0  0  0  0  0  0  0  0  0  0  0  0
   -3.6125    1.2759    7.6061 C   0  0  0  0  0  0  0  0  0  0  0  0
   -3.9931    2.2424    6.6983 C   0  0  0  0  0  0  0  0  0  0  0  0
   -3.4253    1.4694    8.9400 O   0  0  0  0  0  0  0  0  0  0  0  0
   -3.1145    0.1299    9.3661 C   0  0  0  0  0  0  0  0  0  0  0  0
   -3.0315   -0.8158    8.2768 O   0  0  0  0  0  0  0  0  0  0  0  0
   -2.7452    3.0101    0.3017 C   0  0  0  0  0  0  0  0  0  0  0  0
   -1.8306    3.2619   -0.7105 C   0  0  0  0  0  0  0  0  0  0  0  0
   -1.2790    4.4748   -0.9610 N   0  0  0  0  0  0  0  0  0  0  0  0
   -0.6742    8.9528    0.3170 N   0  0  0  0  0  0  0  0  0  0  0  0
   -0.4697    9.8168    1.3319 C   0  0  0  0  0  0  0  0  0  0  0  0
   -0.0590   10.1419    3.4245 H   0  0  0  0  0  0  0  0  0  0  0  0
   -0.0128    7.6571    3.8195 H   0  0  0  0  0  0  0  0  0  0  0  0
   -0.4240    6.7592   -1.1383 H   0  0  0  0  0  0  0  0  0  0  0  0
   -2.8744    6.1748    1.4654 H   0  0  0  0  0  0  0  0  0  0  0  0
   -5.0898    3.5711    1.7858 H   0  0  0  0  0  0  0  0  0  0  0  0
   -4.3346    4.8857    2.6879 H   0  0  0  0  0  0  0  0  0  0  0  0
   -2.7790    3.3059    3.6051 H   0  0  0  0  0  0  0  0  0  0  0  0
   -5.6032    2.5217    3.9471 H   0  0  0  0  0  0  0  0  0  0  0  0
   -4.7822    3.8364    4.7954 H   0  0  0  0  0  0  0  0  0  0  0  0
   -4.0467    0.2187    3.9411 H   0  0  0  0  0  0  0  0  0  0  0  0
   -3.3429   -1.4692    5.6369 H   0  0  0  0  0  0  0  0  0  0  0  0
   -4.1673    3.2614    7.0254 H   0  0  0  0  0  0  0  0  0  0  0  0
   -3.8958   -0.2050   10.0567 H   0  0  0  0  0  0  0  0  0  0  0  0
   -2.1559    0.1393    9.8959 H   0  0  0  0  0  0  0  0  0  0  0  0
   -3.1380    2.0109    0.4578 H   0  0  0  0  0  0  0  0  0  0  0  0
   -1.5010    2.4620   -1.3680 H   0  0  0  0  0  0  0  0  0  0  0  0
   -0.5205   10.8669    1.0607 H   0  0  0  0  0  0  0  0  0  0  0  0
  1  2  1  0  0  0  0
  1 25  2  0  0  0  0
  1 26  1  0  0  0  0
  2  3  2  0  0  0  0
  2 27  1  0  0  0  0
  3  4  1  0  0  0  0
  4  5  1  0  0  0  0
  4 24  2  0  0  0  0
  5  6  1  0  0  0  0
  5 28  1  0  0  0  0
  6  7  1  0  0  0  0
  6 23  2  0  0  0  0
  7  8  2  0  0  0  0
  7 29  1  0  0  0  0
  8  9  1  0  0  0  0
  8 21  1  0  0  0  0
  9 10  1  0  0  0  0
  9 30  1  0  0  0  0
  9 31  1  0  0  0  0
 10 11  1  0  0  0  0
 10 32  1  0  0  0  0
 11 12  1  0  0  0  0
 11 33  1  0  0  0  0
 11 34  1  0  0  0  0
 12 13  1  0  0  0  0
 12 17  2  0  0  0  0
 13 14  2  0  0  0  0
 13 35  1  0  0  0  0
 14 15  1  0  0  0  0
 14 36  1  0  0  0  0
 15 16  2  0  0  0  0
 15 20  1  0  0  0  0
 16 17  1  0  0  0  0
 16 18  1  0  0  0  0
 17 37  1  0  0  0  0
 18 19  1  0  0  0  0
 19 20  1  0  0  0  0
 19 38  1  0  0  0  0
 19 39  1  0  0  0  0
 21 22  2  0  0  0  0
 21 40  1  0  0  0  0
 22 23  1  0  0  0  0
 22 41  1  0  0  0  0
 24 25  1  0  0  0  0
 25 42  1  0  0  0  0
M  END
$$$$
