
 OpenBabel11072213583D

 66 69  0  0  0  0  0  0  0  0999 V2000
    2.4592   -1.1061   -0.2908 O   0  0  0  0  0  0  0  0  0  0  0  0
    2.1585    0.0679   -0.4871 C   0  0  0  0  0  0  0  0  0  0  0  0
    0.7016    0.5838   -0.4102 C   0  0  0  0  0  0  0  0  0  0  0  0
   -0.2611   -0.0924   -1.3116 N   0  0  0  0  0  0  0  0  0  0  0  0
   -1.5824    0.5760   -1.2244 C   0  0  0  0  0  0  0  0  0  0  0  0
   -2.6413   -0.1276   -0.3597 C   0  0  0  0  0  0  0  0  0  0  0  0
   -2.8324   -1.5176   -0.8940 C   0  0  0  0  0  0  0  0  0  0  0  0
   -4.0871   -2.1263   -0.9821 C   0  0  0  0  0  0  0  0  0  0  0  0
   -4.1976   -3.4033   -1.5304 C   0  0  0  0  0  0  0  0  0  0  0  0
   -3.0584   -4.0720   -1.9818 C   0  0  0  0  0  0  0  0  0  0  0  0
   -1.8003   -3.4754   -1.8685 C   0  0  0  0  0  0  0  0  0  0  0  0
   -1.6776   -2.1938   -1.3225 C   0  0  0  0  0  0  0  0  0  0  0  0
   -0.3264   -1.5525   -1.0612 C   0  0  0  0  0  0  0  0  0  0  0  0
    3.0766    1.0779   -0.7177 N   0  0  0  0  0  0  0  0  0  0  0  0
    4.5451    1.0541   -0.6765 C   0  0  0  0  0  0  0  0  0  0  0  0
    5.2712   -0.2443   -0.9944 C   0  0  0  0  0  0  0  0  0  0  0  0
    5.4371   -1.1934    0.1893 C   0  0  0  0  0  0  0  0  0  0  0  0
    5.7024   -0.6009    1.5115 N   0  0  0  0  0  0  0  0  0  0  0  0
    5.3343   -1.5791    2.5578 C   0  0  0  0  0  0  0  0  0  0  0  0
    6.2303   -2.8293    2.5538 C   0  0  0  0  0  0  0  0  0  0  0  0
    7.7131   -2.5148    2.7714 C   0  0  0  0  0  0  0  0  0  0  0  0
    7.9191   -1.8371    4.1184 C   0  0  0  0  0  0  0  0  0  0  0  0
    9.2979   -1.5770    4.3475 O   0  0  0  0  0  0  0  0  0  0  0  0
    9.5671   -0.9773    5.5520 C   0  0  0  0  0  0  0  0  0  0  0  0
    8.6208   -0.6390    6.5276 C   0  0  0  0  0  0  0  0  0  0  0  0
    9.0225   -0.0635    7.7328 C   0  0  0  0  0  0  0  0  0  0  0  0
   10.3737    0.1834    7.9652 C   0  0  0  0  0  0  0  0  0  0  0  0
   11.3242   -0.1282    6.9863 C   0  0  0  0  0  0  0  0  0  0  0  0
   10.9140   -0.7108    5.7857 C   0  0  0  0  0  0  0  0  0  0  0  0
    5.0083    0.6640    1.7699 C   0  0  0  0  0  0  0  0  0  0  0  0
    5.0933    1.6510    0.6151 C   0  0  0  0  0  0  0  0  0  0  0  0
    0.7131    1.6453   -0.6842 H   0  0  0  0  0  0  0  0  0  0  0  0
    0.3788    0.5253    0.6346 H   0  0  0  0  0  0  0  0  0  0  0  0
   -1.9681    0.6491   -2.2510 H   0  0  0  0  0  0  0  0  0  0  0  0
   -1.4839    1.6156   -0.8860 H   0  0  0  0  0  0  0  0  0  0  0  0
   -3.5803    0.4354   -0.4080 H   0  0  0  0  0  0  0  0  0  0  0  0
   -2.3269   -0.1735    0.6894 H   0  0  0  0  0  0  0  0  0  0  0  0
   -4.9796   -1.6105   -0.6376 H   0  0  0  0  0  0  0  0  0  0  0  0
   -5.1722   -3.8780   -1.6092 H   0  0  0  0  0  0  0  0  0  0  0  0
   -3.1502   -5.0656   -2.4125 H   0  0  0  0  0  0  0  0  0  0  0  0
   -0.9188   -4.0176   -2.2014 H   0  0  0  0  0  0  0  0  0  0  0  0
    0.4284   -2.0405   -1.6879 H   0  0  0  0  0  0  0  0  0  0  0  0
   -0.0917   -1.7787   -0.0123 H   0  0  0  0  0  0  0  0  0  0  0  0
    2.6905    2.0008   -0.8559 H   0  0  0  0  0  0  0  0  0  0  0  0
    4.8050    1.7544   -1.4813 H   0  0  0  0  0  0  0  0  0  0  0  0
    6.2805    0.0219   -1.3384 H   0  0  0  0  0  0  0  0  0  0  0  0
    4.7939   -0.7723   -1.8282 H   0  0  0  0  0  0  0  0  0  0  0  0
    6.2926   -1.8389   -0.0524 H   0  0  0  0  0  0  0  0  0  0  0  0
    4.5751   -1.8636    0.2293 H   0  0  0  0  0  0  0  0  0  0  0  0
    4.2859   -1.8875    2.4458 H   0  0  0  0  0  0  0  0  0  0  0  0
    5.3846   -1.1076    3.5470 H   0  0  0  0  0  0  0  0  0  0  0  0
    6.1111   -3.3855    1.6175 H   0  0  0  0  0  0  0  0  0  0  0  0
    5.8846   -3.5046    3.3468 H   0  0  0  0  0  0  0  0  0  0  0  0
    8.1077   -1.8822    1.9678 H   0  0  0  0  0  0  0  0  0  0  0  0
    8.2964   -3.4425    2.7319 H   0  0  0  0  0  0  0  0  0  0  0  0
    7.5320   -2.5051    4.8989 H   0  0  0  0  0  0  0  0  0  0  0  0
    7.3817   -0.8835    4.1340 H   0  0  0  0  0  0  0  0  0  0  0  0
    7.5597   -0.8110    6.3886 H   0  0  0  0  0  0  0  0  0  0  0  0
    8.2845    0.1865    8.4888 H   0  0  0  0  0  0  0  0  0  0  0  0
   10.6904    0.6232    8.9069 H   0  0  0  0  0  0  0  0  0  0  0  0
   12.3721    0.0629    7.1659 H   0  0  0  0  0  0  0  0  0  0  0  0
   11.6506   -0.9576    5.0257 H   0  0  0  0  0  0  0  0  0  0  0  0
    5.4799    1.1393    2.6417 H   0  0  0  0  0  0  0  0  0  0  0  0
    3.9559    0.5002    2.0296 H   0  0  0  0  0  0  0  0  0  0  0  0
    6.1427    1.9368    0.4610 H   0  0  0  0  0  0  0  0  0  0  0  0
    4.5554    2.5711    0.8752 H   0  0  0  0  0  0  0  0  0  0  0  0
  1  2  2  0  0  0  0
  2  3  1  0  0  0  0
  2 14  1  0  0  0  0
  3  4  1  0  0  0  0
  3 32  1  0  0  0  0
  3 33  1  0  0  0  0
  4  5  1  0  0  0  0
  4 13  1  0  0  0  0
  5  6  1  0  0  0  0
  5 34  1  0  0  0  0
  5 35  1  0  0  0  0
  6  7  1  0  0  0  0
  6 36  1  0  0  0  0
  6 37  1  0  0  0  0
  7  8  1  0  0  0  0
  7 12  2  0  0  0  0
  8  9  2  0  0  0  0
  8 38  1  0  0  0  0
  9 10  1  0  0  0  0
  9 39  1  0  0  0  0
 10 11  2  0  0  0  0
 10 40  1  0  0  0  0
 11 12  1  0  0  0  0
 11 41  1  0  0  0  0
 12 13  1  0  0  0  0
 13 42  1  0  0  0  0
 13 43  1  0  0  0  0
 14 15  1  0  0  0  0
 14 44  1  0  0  0  0
 15 16  1  0  0  0  0
 15 31  1  0  0  0  0
 15 45  1  0  0  0  0
 16 17  1  0  0  0  0
 16 46  1  0  0  0  0
 16 47  1  0  0  0  0
 17 18  1  0  0  0  0
 17 48  1  0  0  0  0
 17 49  1  0  0  0  0
 18 19  1  0  0  0  0
 18 30  1  0  0  0  0
 19 20  1  0  0  0  0
 19 50  1  0  0  0  0
 19 51  1  0  0  0  0
 20 21  1  0  0  0  0
 20 52  1  0  0  0  0
 20 53  1  0  0  0  0
 21 22  1  0  0  0  0
 21 54  1  0  0  0  0
 21 55  1  0  0  0  0
 22 23  1  0  0  0  0
 22 56  1  0  0  0  0
 22 57  1  0  0  0  0
 23 24  1  0  0  0  0
 24 25  1  0  0  0  0
 24 29  2  0  0  0  0
 25 26  2  0  0  0  0
 25 58  1  0  0  0  0
 26 27  1  0  0  0  0
 26 59  1  0  0  0  0
 27 28  2  0  0  0  0
 27 60  1  0  0  0  0
 28 29  1  0  0  0  0
 28 61  1  0  0  0  0
 29 62  1  0  0  0  0
 30 31  1  0  0  0  0
 30 63  1  0  0  0  0
 30 64  1  0  0  0  0
 31 65  1  0  0  0  0
 31 66  1  0  0  0  0
M  END
$$$$
