
 OpenBabel11072213583D

 48 50  0  0  0  0  0  0  0  0999 V2000
    1.6146   -5.0804    8.3148 C   0  0  0  0  0  0  0  0  0  0  0  0
    2.9712   -5.4890    8.1584 O   0  0  0  0  0  0  0  0  0  0  0  0
    3.5996   -4.8682    7.0975 C   0  0  0  0  0  0  0  0  0  0  0  0
    4.8565   -5.3439    6.7583 C   0  0  0  0  0  0  0  0  0  0  0  0
    5.4395   -4.8828    5.5817 C   0  0  0  0  0  0  0  0  0  0  0  0
    4.7336   -3.9866    4.7746 C   0  0  0  0  0  0  0  0  0  0  0  0
    5.1660   -3.6653    3.3656 C   0  0  0  0  0  0  0  0  0  0  0  0
    5.3036   -4.8605    2.5059 N   0  0  0  0  0  0  0  0  0  0  0  0
    5.6324   -4.4827    1.1162 C   0  0  0  0  0  0  0  0  0  0  0  0
    4.4647   -3.8281    0.3371 C   0  0  0  0  0  0  0  0  0  0  0  0
    3.2168   -4.6051    0.3041 N   0  0  0  0  0  0  0  0  0  0  0  0
    3.1758   -5.5520   -0.8305 C   0  0  0  0  0  0  0  0  0  0  0  0
    1.7913   -6.2182   -0.9521 C   0  0  0  0  0  0  0  0  0  0  0  0
    1.6430   -7.0244   -2.1305 O   0  0  0  0  0  0  0  0  0  0  0  0
    0.4246   -7.6905   -2.0672 C   0  0  0  0  0  0  0  0  0  0  0  0
   -0.1585   -8.0979   -3.2555 C   0  0  0  0  0  0  0  0  0  0  0  0
   -1.4119   -8.7033   -3.1884 C   0  0  0  0  0  0  0  0  0  0  0  0
   -2.0197   -8.9029   -1.9526 C   0  0  0  0  0  0  0  0  0  0  0  0
   -1.3466   -8.4968   -0.8199 C   0  0  0  0  0  0  0  0  0  0  0  0
   -0.1451   -7.8975   -0.8583 N   0  0  0  0  0  0  0  0  0  0  0  0
    2.9155   -5.1832    1.6336 C   0  0  0  0  0  0  0  0  0  0  0  0
    4.1037   -5.7216    2.4598 C   0  0  0  0  0  0  0  0  0  0  0  0
    3.5302   -3.4895    5.2654 C   0  0  0  0  0  0  0  0  0  0  0  0
    2.9496   -3.9077    6.4081 N   0  0  0  0  0  0  0  0  0  0  0  0
    1.1105   -5.8222    8.9415 H   0  0  0  0  0  0  0  0  0  0  0  0
    1.0634   -5.0424    7.3670 H   0  0  0  0  0  0  0  0  0  0  0  0
    1.5753   -4.1140    8.8264 H   0  0  0  0  0  0  0  0  0  0  0  0
    5.3405   -6.1047    7.3594 H   0  0  0  0  0  0  0  0  0  0  0  0
    6.3945   -5.2845    5.2520 H   0  0  0  0  0  0  0  0  0  0  0  0
    6.1366   -3.1557    3.4270 H   0  0  0  0  0  0  0  0  0  0  0  0
    4.4644   -2.9396    2.9388 H   0  0  0  0  0  0  0  0  0  0  0  0
    5.9467   -5.3894    0.5833 H   0  0  0  0  0  0  0  0  0  0  0  0
    6.5021   -3.8163    1.1065 H   0  0  0  0  0  0  0  0  0  0  0  0
    4.7975   -3.5848   -0.6789 H   0  0  0  0  0  0  0  0  0  0  0  0
    4.2293   -2.8587    0.7923 H   0  0  0  0  0  0  0  0  0  0  0  0
    3.9506   -6.3201   -0.7530 H   0  0  0  0  0  0  0  0  0  0  0  0
    3.3613   -5.0103   -1.7671 H   0  0  0  0  0  0  0  0  0  0  0  0
    1.0181   -5.4367   -0.9705 H   0  0  0  0  0  0  0  0  0  0  0  0
    1.6671   -6.8570   -0.0753 H   0  0  0  0  0  0  0  0  0  0  0  0
    0.3363   -7.9283   -4.2028 H   0  0  0  0  0  0  0  0  0  0  0  0
   -1.9153   -9.0172   -4.0969 H   0  0  0  0  0  0  0  0  0  0  0  0
   -3.0033   -9.3606   -1.8703 H   0  0  0  0  0  0  0  0  0  0  0  0
   -1.7640   -8.6306    0.1709 H   0  0  0  0  0  0  0  0  0  0  0  0
    2.1673   -5.9775    1.5888 H   0  0  0  0  0  0  0  0  0  0  0  0
    2.4241   -4.3926    2.2155 H   0  0  0  0  0  0  0  0  0  0  0  0
    4.4105   -6.6882    2.0381 H   0  0  0  0  0  0  0  0  0  0  0  0
    3.7463   -5.9702    3.4663 H   0  0  0  0  0  0  0  0  0  0  0  0
    2.9495   -2.7589    4.7083 H   0  0  0  0  0  0  0  0  0  0  0  0
  1  2  1  0  0  0  0
  1 25  1  0  0  0  0
  1 26  1  0  0  0  0
  1 27  1  0  0  0  0
  2  3  1  0  0  0  0
  3  4  1  0  0  0  0
  3 24  2  0  0  0  0
  4  5  2  0  0  0  0
  4 28  1  0  0  0  0
  5  6  1  0  0  0  0
  5 29  1  0  0  0  0
  6  7  1  0  0  0  0
  6 23  2  0  0  0  0
  7  8  1  0  0  0  0
  7 30  1  0  0  0  0
  7 31  1  0  0  0  0
  8  9  1  0  0  0  0
  8 22  1  0  0  0  0
  9 10  1  0  0  0  0
  9 32  1  0  0  0  0
  9 33  1  0  0  0  0
 10 11  1  0  0  0  0
 10 34  1  0  0  0  0
 10 35  1  0  0  0  0
 11 12  1  0  0  0  0
 11 21  1  0  0  0  0
 12 13  1  0  0  0  0
 12 36  1  0  0  0  0
 12 37  1  0  0  0  0
 13 14  1  0  0  0  0
 13 38  1  0  0  0  0
 13 39  1  0  0  0  0
 14 15  1  0  0  0  0
 15 16  1  0  0  0  0
 15 20  2  0  0  0  0
 16 17  2  0  0  0  0
 16 40  1  0  0  0  0
 17 18  1  0  0  0  0
 17 41  1  0  0  0  0
 18 19  2  0  0  0  0
 18 42  1  0  0  0  0
 19 20  1  0  0  0  0
 19 43  1  0  0  0  0
 21 22  1  0  0  0  0
 21 44  1  0  0  0  0
 21 45  1  0  0  0  0
 22 46  1  0  0  0  0
 22 47  1  0  0  0  0
 23 24  1  0  0  0  0
 23 48  1  0  0  0  0
M  END
$$$$
