
 OpenBabel11072213583D

 45 47  0  0  0  0  0  0  0  0999 V2000
   -0.1888    3.8217    3.2571 C   0  0  0  0  0  0  0  0  0  0  0  0
   -1.2526    3.1985    2.4209 C   0  0  0  0  0  0  0  0  0  0  0  0
   -2.5657    3.5927    2.2787 C   0  0  0  0  0  0  0  0  0  0  0  0
   -3.2962    2.7325    1.4108 C   0  0  0  0  0  0  0  0  0  0  0  0
   -2.5155    1.7175    0.8927 C   0  0  0  0  0  0  0  0  0  0  0  0
   -2.9141    0.6388   -0.0949 C   0  0  0  0  0  0  0  0  0  0  0  0
   -4.0653   -0.1383    0.3812 N   0  0  0  0  0  0  0  0  0  0  0  0
   -3.7328   -1.0547    1.4917 C   0  0  0  0  0  0  0  0  0  0  0  0
   -3.3173   -2.4965    1.1053 C   0  0  0  0  0  0  0  0  0  0  0  0
   -4.2183   -3.1600    0.1435 N   0  0  0  0  0  0  0  0  0  0  0  0
   -5.5240   -3.4959    0.7630 C   0  0  0  0  0  0  0  0  0  0  0  0
   -6.4513   -4.2897   -0.1743 C   0  0  0  0  0  0  0  0  0  0  0  0
   -7.6802   -4.6392    0.4848 O   0  0  0  0  0  0  0  0  0  0  0  0
   -8.5521   -5.2610   -0.3971 C   0  0  0  0  0  0  0  0  0  0  0  0
   -9.8030   -5.6120    0.0892 C   0  0  0  0  0  0  0  0  0  0  0  0
  -10.6954   -6.2292   -0.7848 C   0  0  0  0  0  0  0  0  0  0  0  0
  -10.3116   -6.4702   -2.1010 C   0  0  0  0  0  0  0  0  0  0  0  0
   -9.0460   -6.0811   -2.4940 C   0  0  0  0  0  0  0  0  0  0  0  0
   -8.1608   -5.4836   -1.6710 N   0  0  0  0  0  0  0  0  0  0  0  0
   -4.3293   -2.2730   -1.0312 C   0  0  0  0  0  0  0  0  0  0  0  0
   -4.7759   -0.8286   -0.7117 C   0  0  0  0  0  0  0  0  0  0  0  0
   -0.9097    1.8048    1.4851 S   0  0  0  0  0  0  0  0  0  0  0  0
   -0.4678    4.8413    3.5440 H   0  0  0  0  0  0  0  0  0  0  0  0
    0.7635    3.8791    2.7191 H   0  0  0  0  0  0  0  0  0  0  0  0
   -0.0375    3.2441    4.1748 H   0  0  0  0  0  0  0  0  0  0  0  0
   -2.9889    4.4559    2.7796 H   0  0  0  0  0  0  0  0  0  0  0  0
   -4.3456    2.8504    1.1708 H   0  0  0  0  0  0  0  0  0  0  0  0
   -2.0724   -0.0098   -0.3648 H   0  0  0  0  0  0  0  0  0  0  0  0
   -3.1941    1.1826   -1.0083 H   0  0  0  0  0  0  0  0  0  0  0  0
   -4.6211   -1.1153    2.1309 H   0  0  0  0  0  0  0  0  0  0  0  0
   -2.9520   -0.6355    2.1366 H   0  0  0  0  0  0  0  0  0  0  0  0
   -3.2201   -3.1080    2.0110 H   0  0  0  0  0  0  0  0  0  0  0  0
   -2.3125   -2.4689    0.6637 H   0  0  0  0  0  0  0  0  0  0  0  0
   -6.0568   -2.6072    1.1223 H   0  0  0  0  0  0  0  0  0  0  0  0
   -5.3504   -4.1120    1.6491 H   0  0  0  0  0  0  0  0  0  0  0  0
   -5.9343   -5.2048   -0.4899 H   0  0  0  0  0  0  0  0  0  0  0  0
   -6.6894   -3.6662   -1.0410 H   0  0  0  0  0  0  0  0  0  0  0  0
  -10.0751   -5.4107    1.1188 H   0  0  0  0  0  0  0  0  0  0  0  0
  -11.6837   -6.5212   -0.4430 H   0  0  0  0  0  0  0  0  0  0  0  0
  -10.9852   -6.9493   -2.8037 H   0  0  0  0  0  0  0  0  0  0  0  0
   -8.6925   -6.2447   -3.5074 H   0  0  0  0  0  0  0  0  0  0  0  0
   -4.9951   -2.7046   -1.7871 H   0  0  0  0  0  0  0  0  0  0  0  0
   -3.3477   -2.2423   -1.5229 H   0  0  0  0  0  0  0  0  0  0  0  0
   -5.8377   -0.8517   -0.4395 H   0  0  0  0  0  0  0  0  0  0  0  0
   -4.7385   -0.2404   -1.6377 H   0  0  0  0  0  0  0  0  0  0  0  0
  1  2  1  0  0  0  0
  1 23  1  0  0  0  0
  1 24  1  0  0  0  0
  1 25  1  0  0  0  0
  2  3  2  0  0  0  0
  2 22  1  0  0  0  0
  3  4  1  0  0  0  0
  3 26  1  0  0  0  0
  4  5  2  0  0  0  0
  4 27  1  0  0  0  0
  5  6  1  0  0  0  0
  5 22  1  0  0  0  0
  6  7  1  0  0  0  0
  6 28  1  0  0  0  0
  6 29  1  0  0  0  0
  7  8  1  0  0  0  0
  7 21  1  0  0  0  0
  8  9  1  0  0  0  0
  8 30  1  0  0  0  0
  8 31  1  0  0  0  0
  9 10  1  0  0  0  0
  9 32  1  0  0  0  0
  9 33  1  0  0  0  0
 10 11  1  0  0  0  0
 10 20  1  0  0  0  0
 11 12  1  0  0  0  0
 11 34  1  0  0  0  0
 11 35  1  0  0  0  0
 12 13  1  0  0  0  0
 12 36  1  0  0  0  0
 12 37  1  0  0  0  0
 13 14  1  0  0  0  0
 14 15  1  0  0  0  0
 14 19  2  0  0  0  0
 15 16  2  0  0  0  0
 15 38  1  0  0  0  0
 16 17  1  0  0  0  0
 16 39  1  0  0  0  0
 17 18  2  0  0  0  0
 17 40  1  0  0  0  0
 18 19  1  0  0  0  0
 18 41  1  0  0  0  0
 20 21  1  0  0  0  0
 20 42  1  0  0  0  0
 20 43  1  0  0  0  0
 21 44  1  0  0  0  0
 21 45  1  0  0  0  0
M  END
$$$$
