
 OpenBabel11072213583D

 69 72  0  0  0  0  0  0  0  0999 V2000
    1.0704    0.0155   -0.5613 O   0  0  0  0  0  0  0  0  0  0  0  0
    2.2738    0.0423   -0.3063 C   0  0  0  0  0  0  0  0  0  0  0  0
    2.9210    0.8745    0.8087 C   0  0  0  0  0  0  0  0  0  0  0  0
    2.0805    1.0386    2.0089 N   0  0  0  0  0  0  0  0  0  0  0  0
    1.6912   -0.2379    2.6300 C   0  0  0  0  0  0  0  0  0  0  0  0
    0.2240   -0.6461    2.4362 C   0  0  0  0  0  0  0  0  0  0  0  0
   -0.6438    0.4698    2.9481 C   0  0  0  0  0  0  0  0  0  0  0  0
   -1.8256    0.2244    3.6486 C   0  0  0  0  0  0  0  0  0  0  0  0
   -2.5688    1.2958    4.1366 C   0  0  0  0  0  0  0  0  0  0  0  0
   -2.1365    2.6059    3.9147 C   0  0  0  0  0  0  0  0  0  0  0  0
   -0.9738    2.8542    3.1891 C   0  0  0  0  0  0  0  0  0  0  0  0
   -0.2173    1.7796    2.6983 C   0  0  0  0  0  0  0  0  0  0  0  0
    0.9848    1.9973    1.8004 C   0  0  0  0  0  0  0  0  0  0  0  0
    3.0812   -0.7266   -1.0983 N   0  0  0  0  0  0  0  0  0  0  0  0
    4.5335   -0.8460   -1.0760 C   0  0  0  0  0  0  0  0  0  0  0  0
    5.0493   -1.1140   -2.4838 C   0  0  0  0  0  0  0  0  0  0  0  0
    4.6802   -2.5148   -2.9470 C   0  0  0  0  0  0  0  0  0  0  0  0
    5.1627   -3.5369   -2.0062 N   0  0  0  0  0  0  0  0  0  0  0  0
    4.8554   -4.8951   -2.4852 C   0  0  0  0  0  0  0  0  0  0  0  0
    5.5354   -5.2019   -3.8186 C   0  0  0  0  0  0  0  0  0  0  0  0
    7.0603   -5.0493   -3.7552 C   0  0  0  0  0  0  0  0  0  0  0  0
    7.7055   -5.2996   -5.1142 C   0  0  0  0  0  0  0  0  0  0  0  0
    7.2177   -4.2929   -6.1479 C   0  0  0  0  0  0  0  0  0  0  0  0
    7.8494   -4.5530   -7.3945 O   0  0  0  0  0  0  0  0  0  0  0  0
    7.4803   -3.7094   -8.4071 C   0  0  0  0  0  0  0  0  0  0  0  0
    6.5602   -2.6615   -8.3072 C   0  0  0  0  0  0  0  0  0  0  0  0
    6.2877   -1.8538   -9.4104 C   0  0  0  0  0  0  0  0  0  0  0  0
    6.9340   -2.0920  -10.6214 C   0  0  0  0  0  0  0  0  0  0  0  0
    7.8469   -3.1447  -10.7283 C   0  0  0  0  0  0  0  0  0  0  0  0
    8.1145   -3.9515   -9.6243 C   0  0  0  0  0  0  0  0  0  0  0  0
    4.6106   -3.3376   -0.6592 C   0  0  0  0  0  0  0  0  0  0  0  0
    4.9686   -1.9542   -0.1181 C   0  0  0  0  0  0  0  0  0  0  0  0
    3.2063    1.8463    0.3912 H   0  0  0  0  0  0  0  0  0  0  0  0
    3.8478    0.3944    1.1365 H   0  0  0  0  0  0  0  0  0  0  0  0
    1.8652   -0.1157    3.7089 H   0  0  0  0  0  0  0  0  0  0  0  0
    2.3550   -1.0593    2.3323 H   0  0  0  0  0  0  0  0  0  0  0  0
    0.0315   -1.5738    2.9857 H   0  0  0  0  0  0  0  0  0  0  0  0
   -0.0154   -0.8347    1.3868 H   0  0  0  0  0  0  0  0  0  0  0  0
   -2.1654   -0.7932    3.8215 H   0  0  0  0  0  0  0  0  0  0  0  0
   -3.4834    1.1140    4.6932 H   0  0  0  0  0  0  0  0  0  0  0  0
   -2.7214    3.4365    4.3013 H   0  0  0  0  0  0  0  0  0  0  0  0
   -0.6655    3.8773    3.0014 H   0  0  0  0  0  0  0  0  0  0  0  0
    1.3905    3.0030    1.9612 H   0  0  0  0  0  0  0  0  0  0  0  0
    0.6046    1.9737    0.7736 H   0  0  0  0  0  0  0  0  0  0  0  0
    2.5442   -1.3504   -1.6855 H   0  0  0  0  0  0  0  0  0  0  0  0
    4.9486    0.1104   -0.7410 H   0  0  0  0  0  0  0  0  0  0  0  0
    6.1412   -1.0036   -2.5065 H   0  0  0  0  0  0  0  0  0  0  0  0
    4.6417   -0.3813   -3.1922 H   0  0  0  0  0  0  0  0  0  0  0  0
    5.1420   -2.6276   -3.9318 H   0  0  0  0  0  0  0  0  0  0  0  0
    3.5966   -2.6067   -3.0923 H   0  0  0  0  0  0  0  0  0  0  0  0
    3.7725   -5.0252   -2.6036 H   0  0  0  0  0  0  0  0  0  0  0  0
    5.1950   -5.6389   -1.7543 H   0  0  0  0  0  0  0  0  0  0  0  0
    5.1069   -4.5427   -4.5782 H   0  0  0  0  0  0  0  0  0  0  0  0
    5.2775   -6.2139   -4.1457 H   0  0  0  0  0  0  0  0  0  0  0  0
    7.4670   -5.7543   -3.0208 H   0  0  0  0  0  0  0  0  0  0  0  0
    7.3403   -4.0451   -3.4152 H   0  0  0  0  0  0  0  0  0  0  0  0
    7.4917   -6.3188   -5.4551 H   0  0  0  0  0  0  0  0  0  0  0  0
    8.7966   -5.2287   -5.0264 H   0  0  0  0  0  0  0  0  0  0  0  0
    7.4604   -3.2806   -5.8018 H   0  0  0  0  0  0  0  0  0  0  0  0
    6.1378   -4.3939   -6.2860 H   0  0  0  0  0  0  0  0  0  0  0  0
    6.0328   -2.4394   -7.3840 H   0  0  0  0  0  0  0  0  0  0  0  0
    5.5767   -1.0387   -9.3213 H   0  0  0  0  0  0  0  0  0  0  0  0
    6.7304   -1.4601  -11.4779 H   0  0  0  0  0  0  0  0  0  0  0  0
    8.3520   -3.3315  -11.6705 H   0  0  0  0  0  0  0  0  0  0  0  0
    8.8237   -4.7712   -9.7079 H   0  0  0  0  0  0  0  0  0  0  0  0
    5.0225   -4.0841    0.0307 H   0  0  0  0  0  0  0  0  0  0  0  0
    3.5208   -3.4698   -0.6614 H   0  0  0  0  0  0  0  0  0  0  0  0
    6.0536   -1.8936    0.0359 H   0  0  0  0  0  0  0  0  0  0  0  0
    4.5002   -1.8220    0.8637 H   0  0  0  0  0  0  0  0  0  0  0  0
  1  2  2  0  0  0  0
  2  3  1  0  0  0  0
  2 14  1  0  0  0  0
  3  4  1  0  0  0  0
  3 33  1  0  0  0  0
  3 34  1  0  0  0  0
  4  5  1  0  0  0  0
  4 13  1  0  0  0  0
  5  6  1  0  0  0  0
  5 35  1  0  0  0  0
  5 36  1  0  0  0  0
  6  7  1  0  0  0  0
  6 37  1  0  0  0  0
  6 38  1  0  0  0  0
  7  8  1  0  0  0  0
  7 12  2  0  0  0  0
  8  9  2  0  0  0  0
  8 39  1  0  0  0  0
  9 10  1  0  0  0  0
  9 40  1  0  0  0  0
 10 11  2  0  0  0  0
 10 41  1  0  0  0  0
 11 12  1  0  0  0  0
 11 42  1  0  0  0  0
 12 13  1  0  0  0  0
 13 43  1  0  0  0  0
 13 44  1  0  0  0  0
 14 15  1  0  0  0  0
 14 45  1  0  0  0  0
 15 16  1  0  0  0  0
 15 32  1  0  0  0  0
 15 46  1  0  0  0  0
 16 17  1  0  0  0  0
 16 47  1  0  0  0  0
 16 48  1  0  0  0  0
 17 18  1  0  0  0  0
 17 49  1  0  0  0  0
 17 50  1  0  0  0  0
 18 19  1  0  0  0  0
 18 31  1  0  0  0  0
 19 20  1  0  0  0  0
 19 51  1  0  0  0  0
 19 52  1  0  0  0  0
 20 21  1  0  0  0  0
 20 53  1  0  0  0  0
 20 54  1  0  0  0  0
 21 22  1  0  0  0  0
 21 55  1  0  0  0  0
 21 56  1  0  0  0  0
 22 23  1  0  0  0  0
 22 57  1  0  0  0  0
 22 58  1  0  0  0  0
 23 24  1  0  0  0  0
 23 59  1  0  0  0  0
 23 60  1  0  0  0  0
 24 25  1  0  0  0  0
 25 26  1  0  0  0  0
 25 30  2  0  0  0  0
 26 27  2  0  0  0  0
 26 61  1  0  0  0  0
 27 28  1  0  0  0  0
 27 62  1  0  0  0  0
 28 29  2  0  0  0  0
 28 63  1  0  0  0  0
 29 30  1  0  0  0  0
 29 64  1  0  0  0  0
 30 65  1  0  0  0  0
 31 32  1  0  0  0  0
 31 66  1  0  0  0  0
 31 67  1  0  0  0  0
 32 68  1  0  0  0  0
 32 69  1  0  0  0  0
M  END
$$$$
