
 OpenBabel11072213583D

 61 64  0  0  0  0  0  0  0  0999 V2000
    6.1467    5.3653    5.8886 C   0  0  0  0  0  0  0  0  0  0  0  0
    6.6601    4.2904    6.6739 O   0  0  0  0  0  0  0  0  0  0  0  0
    6.3972    3.0290    6.2152 C   0  0  0  0  0  0  0  0  0  0  0  0
    6.2008    2.7491    4.8457 C   0  0  0  0  0  0  0  0  0  0  0  0
    5.7983    1.4989    4.3816 C   0  0  0  0  0  0  0  0  0  0  0  0
    5.5326    1.3374    3.0802 N   0  0  0  0  0  0  0  0  0  0  0  0
    5.0975    0.1257    2.7116 C   0  0  0  0  0  0  0  0  0  0  0  0
    4.8809   -0.9214    3.5165 N   0  0  0  0  0  0  0  0  0  0  0  0
    5.1270   -0.7508    4.8299 C   0  0  0  0  0  0  0  0  0  0  0  0
    4.7707   -1.7901    5.6782 N   0  0  0  0  0  0  0  0  0  0  0  0
    4.7885   -3.1758    5.1964 C   0  0  0  0  0  0  0  0  0  0  0  0
    3.4934   -3.9354    5.5729 C   0  0  0  0  0  0  0  0  0  0  0  0
    3.0504   -3.7928    6.9834 N   0  0  0  0  0  0  0  0  0  0  0  0
    3.9793   -4.4466    7.9195 C   0  0  0  0  0  0  0  0  0  0  0  0
    3.5173   -4.3678    9.3877 C   0  0  0  0  0  0  0  0  0  0  0  0
    2.0936   -4.8809    9.6186 C   0  0  0  0  0  0  0  0  0  0  0  0
    1.9744   -6.3500    9.2414 C   0  0  0  0  0  0  0  0  0  0  0  0
    0.6522   -6.8039    9.5079 O   0  0  0  0  0  0  0  0  0  0  0  0
    0.4219   -8.1244    9.2271 C   0  0  0  0  0  0  0  0  0  0  0  0
    1.3683   -9.0343    8.7332 C   0  0  0  0  0  0  0  0  0  0  0  0
    1.0082  -10.3665    8.5125 C   0  0  0  0  0  0  0  0  0  0  0  0
   -0.2852  -10.7969    8.7754 C   0  0  0  0  0  0  0  0  0  0  0  0
   -1.2305   -9.8901    9.2524 C   0  0  0  0  0  0  0  0  0  0  0  0
   -0.8764   -8.5565    9.4757 C   0  0  0  0  0  0  0  0  0  0  0  0
    2.9080   -2.3481    7.2442 C   0  0  0  0  0  0  0  0  0  0  0  0
    4.1912   -1.5467    7.0062 C   0  0  0  0  0  0  0  0  0  0  0  0
    5.6614    0.4639    5.3044 C   0  0  0  0  0  0  0  0  0  0  0  0
    6.0671    0.7064    6.6323 C   0  0  0  0  0  0  0  0  0  0  0  0
    6.3526    1.9778    7.1220 C   0  0  0  0  0  0  0  0  0  0  0  0
    6.4911    1.9426    8.4765 O   0  0  0  0  0  0  0  0  0  0  0  0
    6.6941    3.1312    9.2134 C   0  0  0  0  0  0  0  0  0  0  0  0
    5.8437    6.1644    6.5700 H   0  0  0  0  0  0  0  0  0  0  0  0
    5.2599    5.0974    5.3013 H   0  0  0  0  0  0  0  0  0  0  0  0
    6.9363    5.7469    5.2347 H   0  0  0  0  0  0  0  0  0  0  0  0
    6.3331    3.5273    4.0994 H   0  0  0  0  0  0  0  0  0  0  0  0
    4.8815   -0.0148    1.6581 H   0  0  0  0  0  0  0  0  0  0  0  0
    5.6491   -3.6783    5.6532 H   0  0  0  0  0  0  0  0  0  0  0  0
    4.9334   -3.2541    4.1128 H   0  0  0  0  0  0  0  0  0  0  0  0
    3.6025   -4.9975    5.3247 H   0  0  0  0  0  0  0  0  0  0  0  0
    2.6806   -3.5656    4.9322 H   0  0  0  0  0  0  0  0  0  0  0  0
    4.9950   -4.0401    7.8575 H   0  0  0  0  0  0  0  0  0  0  0  0
    4.0741   -5.5029    7.6414 H   0  0  0  0  0  0  0  0  0  0  0  0
    3.5931   -3.3384    9.7569 H   0  0  0  0  0  0  0  0  0  0  0  0
    4.2135   -4.9519   10.0028 H   0  0  0  0  0  0  0  0  0  0  0  0
    1.3603   -4.2902    9.0565 H   0  0  0  0  0  0  0  0  0  0  0  0
    1.8224   -4.7503   10.6735 H   0  0  0  0  0  0  0  0  0  0  0  0
    2.6923   -6.9211    9.8414 H   0  0  0  0  0  0  0  0  0  0  0  0
    2.1861   -6.4782    8.1737 H   0  0  0  0  0  0  0  0  0  0  0  0
    2.3845   -8.7466    8.5162 H   0  0  0  0  0  0  0  0  0  0  0  0
    1.7501  -11.0700    8.1382 H   0  0  0  0  0  0  0  0  0  0  0  0
   -0.5624  -11.8336    8.6082 H   0  0  0  0  0  0  0  0  0  0  0  0
   -2.2469  -10.2220    9.4547 H   0  0  0  0  0  0  0  0  0  0  0  0
   -1.6184   -7.8542    9.8457 H   0  0  0  0  0  0  0  0  0  0  0  0
    2.5528   -2.1618    8.2643 H   0  0  0  0  0  0  0  0  0  0  0  0
    2.1147   -1.9491    6.5979 H   0  0  0  0  0  0  0  0  0  0  0  0
    4.9354   -1.8165    7.7662 H   0  0  0  0  0  0  0  0  0  0  0  0
    3.9171   -0.4981    7.1609 H   0  0  0  0  0  0  0  0  0  0  0  0
    6.1234   -0.1092    7.3450 H   0  0  0  0  0  0  0  0  0  0  0  0
    6.5580    2.8714   10.2706 H   0  0  0  0  0  0  0  0  0  0  0  0
    5.9583    3.9043    8.9812 H   0  0  0  0  0  0  0  0  0  0  0  0
    7.7209    3.4795    9.0870 H   0  0  0  0  0  0  0  0  0  0  0  0
  1  2  1  0  0  0  0
  1 32  1  0  0  0  0
  1 33  1  0  0  0  0
  1 34  1  0  0  0  0
  2  3  1  0  0  0  0
  3  4  1  0  0  0  0
  3 29  2  0  0  0  0
  4  5  2  0  0  0  0
  4 35  1  0  0  0  0
  5  6  1  0  0  0  0
  5 27  1  0  0  0  0
  6  7  2  0  0  0  0
  7  8  1  0  0  0  0
  7 36  1  0  0  0  0
  8  9  2  0  0  0  0
  9 10  1  0  0  0  0
  9 27  1  0  0  0  0
 10 11  1  0  0  0  0
 10 26  1  0  0  0  0
 11 12  1  0  0  0  0
 11 37  1  0  0  0  0
 11 38  1  0  0  0  0
 12 13  1  0  0  0  0
 12 39  1  0  0  0  0
 12 40  1  0  0  0  0
 13 14  1  0  0  0  0
 13 25  1  0  0  0  0
 14 15  1  0  0  0  0
 14 41  1  0  0  0  0
 14 42  1  0  0  0  0
 15 16  1  0  0  0  0
 15 43  1  0  0  0  0
 15 44  1  0  0  0  0
 16 17  1  0  0  0  0
 16 45  1  0  0  0  0
 16 46  1  0  0  0  0
 17 18  1  0  0  0  0
 17 47  1  0  0  0  0
 17 48  1  0  0  0  0
 18 19  1  0  0  0  0
 19 20  1  0  0  0  0
 19 24  2  0  0  0  0
 20 21  2  0  0  0  0
 20 49  1  0  0  0  0
 21 22  1  0  0  0  0
 21 50  1  0  0  0  0
 22 23  2  0  0  0  0
 22 51  1  0  0  0  0
 23 24  1  0  0  0  0
 23 52  1  0  0  0  0
 24 53  1  0  0  0  0
 25 26  1  0  0  0  0
 25 54  1  0  0  0  0
 25 55  1  0  0  0  0
 26 56  1  0  0  0  0
 26 57  1  0  0  0  0
 27 28  2  0  0  0  0
 28 29  1  0  0  0  0
 28 58  1  0  0  0  0
 29 30  1  0  0  0  0
 30 31  1  0  0  0  0
 31 59  1  0  0  0  0
 31 60  1  0  0  0  0
 31 61  1  0  0  0  0
M  END
$$$$
