
 OpenBabel11072213583D

 47 49  0  0  0  0  0  0  0  0999 V2000
    1.5455   -0.5113    0.2085 C   0  0  0  0  0  0  0  0  0  0  0  0
    2.7477    0.2133    0.4457 O   0  0  0  0  0  0  0  0  0  0  0  0
    3.2728    0.8932   -0.6222 C   0  0  0  0  0  0  0  0  0  0  0  0
    2.4810    1.3612   -1.6799 C   0  0  0  0  0  0  0  0  0  0  0  0
    3.0415    2.0991   -2.7263 C   0  0  0  0  0  0  0  0  0  0  0  0
    4.4060    2.4053   -2.7330 C   0  0  0  0  0  0  0  0  0  0  0  0
    5.0127    3.1937   -3.8703 C   0  0  0  0  0  0  0  0  0  0  0  0
    4.3923    4.5080   -3.9805 N   0  0  0  0  0  0  0  0  0  0  0  0
    4.9597    5.2954   -5.0719 C   0  0  0  0  0  0  0  0  0  0  0  0
    4.2594    6.6272   -5.1753 C   0  0  0  0  0  0  0  0  0  0  0  0
    4.9209    7.8426   -5.0656 C   0  0  0  0  0  0  0  0  0  0  0  0
    4.1675    9.0050   -5.1604 C   0  0  0  0  0  0  0  0  0  0  0  0
    2.8284    9.0384   -5.3709 N   0  0  0  0  0  0  0  0  0  0  0  0
    2.1878    7.8565   -5.5125 C   0  0  0  0  0  0  0  0  0  0  0  0
    0.8208    7.8930   -5.7538 N   0  0  0  0  0  0  0  0  0  0  0  0
   -0.0067    6.9399   -6.3347 C   0  0  0  0  0  0  0  0  0  0  0  0
    0.5199    5.8154   -6.8562 N   0  0  0  0  0  0  0  0  0  0  0  0
   -0.3112    4.8962   -7.3635 C   0  0  0  0  0  0  0  0  0  0  0  0
   -1.6694    5.0471   -7.3759 C   0  0  0  0  0  0  0  0  0  0  0  0
   -2.1268    6.2331   -6.8534 C   0  0  0  0  0  0  0  0  0  0  0  0
   -1.3251    7.1916   -6.3487 N   0  0  0  0  0  0  0  0  0  0  0  0
    2.8804    6.6543   -5.3974 C   0  0  0  0  0  0  0  0  0  0  0  0
    5.1922    1.9604   -1.6632 C   0  0  0  0  0  0  0  0  0  0  0  0
    4.6439    1.2002   -0.6174 C   0  0  0  0  0  0  0  0  0  0  0  0
    5.5630    0.8746    0.3485 O   0  0  0  0  0  0  0  0  0  0  0  0
    5.3761   -0.3692    1.0118 C   0  0  0  0  0  0  0  0  0  0  0  0
    1.3355   -1.1119    1.0988 H   0  0  0  0  0  0  0  0  0  0  0  0
    1.6583   -1.1959   -0.6391 H   0  0  0  0  0  0  0  0  0  0  0  0
    0.6948    0.1616    0.0635 H   0  0  0  0  0  0  0  0  0  0  0  0
    1.4092    1.1961   -1.7063 H   0  0  0  0  0  0  0  0  0  0  0  0
    2.4009    2.4596   -3.5295 H   0  0  0  0  0  0  0  0  0  0  0  0
    4.8684    2.6189   -4.7938 H   0  0  0  0  0  0  0  0  0  0  0  0
    6.0932    3.2988   -3.7163 H   0  0  0  0  0  0  0  0  0  0  0  0
    4.5046    5.0122   -3.1022 H   0  0  0  0  0  0  0  0  0  0  0  0
    4.8308    4.7722   -6.0283 H   0  0  0  0  0  0  0  0  0  0  0  0
    6.0347    5.4454   -4.9206 H   0  0  0  0  0  0  0  0  0  0  0  0
    5.9910    7.8964   -4.9030 H   0  0  0  0  0  0  0  0  0  0  0  0
    4.6384    9.9790   -5.0680 H   0  0  0  0  0  0  0  0  0  0  0  0
    0.4131    8.8075   -5.7221 H   0  0  0  0  0  0  0  0  0  0  0  0
    0.1725    4.0100   -7.7605 H   0  0  0  0  0  0  0  0  0  0  0  0
   -2.3275    4.2882   -7.7693 H   0  0  0  0  0  0  0  0  0  0  0  0
   -3.1898    6.4488   -6.8136 H   0  0  0  0  0  0  0  0  0  0  0  0
    2.3547    5.7064   -5.4464 H   0  0  0  0  0  0  0  0  0  0  0  0
    6.2538    2.1967   -1.6329 H   0  0  0  0  0  0  0  0  0  0  0  0
    6.3306   -0.6407    1.4746 H   0  0  0  0  0  0  0  0  0  0  0  0
    5.1091   -1.1708    0.3146 H   0  0  0  0  0  0  0  0  0  0  0  0
    4.6461   -0.2772    1.8205 H   0  0  0  0  0  0  0  0  0  0  0  0
  1  2  1  0  0  0  0
  1 27  1  0  0  0  0
  1 28  1  0  0  0  0
  1 29  1  0  0  0  0
  2  3  1  0  0  0  0
  3  4  1  0  0  0  0
  3 24  2  0  0  0  0
  4  5  2  0  0  0  0
  4 30  1  0  0  0  0
  5  6  1  0  0  0  0
  5 31  1  0  0  0  0
  6  7  1  0  0  0  0
  6 23  2  0  0  0  0
  7  8  1  0  0  0  0
  7 32  1  0  0  0  0
  7 33  1  0  0  0  0
  8  9  1  0  0  0  0
  8 34  1  0  0  0  0
  9 10  1  0  0  0  0
  9 35  1  0  0  0  0
  9 36  1  0  0  0  0
 10 11  1  0  0  0  0
 10 22  2  0  0  0  0
 11 12  2  0  0  0  0
 11 37  1  0  0  0  0
 12 13  1  0  0  0  0
 12 38  1  0  0  0  0
 13 14  2  0  0  0  0
 14 15  1  0  0  0  0
 14 22  1  0  0  0  0
 15 16  1  0  0  0  0
 15 39  1  0  0  0  0
 16 17  1  0  0  0  0
 16 21  2  0  0  0  0
 17 18  2  0  0  0  0
 18 19  1  0  0  0  0
 18 40  1  0  0  0  0
 19 20  2  0  0  0  0
 19 41  1  0  0  0  0
 20 21  1  0  0  0  0
 20 42  1  0  0  0  0
 22 43  1  0  0  0  0
 23 24  1  0  0  0  0
 23 44  1  0  0  0  0
 24 25  1  0  0  0  0
 25 26  1  0  0  0  0
 26 45  1  0  0  0  0
 26 46  1  0  0  0  0
 26 47  1  0  0  0  0
M  END
$$$$
