
 OpenBabel11072213583D

 59 62  0  0  0  0  0  0  0  0999 V2000
    3.4999    1.1293   -1.4126 O   0  0  0  0  0  0  0  0  0  0  0  0
    3.1418    0.0140   -1.7849 C   0  0  0  0  0  0  0  0  0  0  0  0
    3.2425   -1.1998   -0.8461 C   0  0  0  0  0  0  0  0  0  0  0  0
    1.9614   -1.9447   -0.7597 N   0  0  0  0  0  0  0  0  0  0  0  0
    0.8461   -1.0666   -0.3291 C   0  0  0  0  0  0  0  0  0  0  0  0
    0.9553   -0.5844    1.1331 C   0  0  0  0  0  0  0  0  0  0  0  0
    0.9340   -1.6915    2.1056 N   0  0  0  0  0  0  0  0  0  0  0  0
   -0.4338   -2.2310    2.2370 C   0  0  0  0  0  0  0  0  0  0  0  0
   -0.5963   -3.2311    3.3860 C   0  0  0  0  0  0  0  0  0  0  0  0
   -1.9814   -3.5878    3.5214 O   0  0  0  0  0  0  0  0  0  0  0  0
   -2.1307   -4.6254    4.4233 C   0  0  0  0  0  0  0  0  0  0  0  0
   -3.3611   -4.7591    5.0450 C   0  0  0  0  0  0  0  0  0  0  0  0
   -3.5143   -5.7889    5.9696 C   0  0  0  0  0  0  0  0  0  0  0  0
   -2.4517   -6.6520    6.2210 C   0  0  0  0  0  0  0  0  0  0  0  0
   -1.2711   -6.4543    5.5240 C   0  0  0  0  0  0  0  0  0  0  0  0
   -1.0926   -5.4605    4.6329 N   0  0  0  0  0  0  0  0  0  0  0  0
    1.9597   -2.6885    1.7269 C   0  0  0  0  0  0  0  0  0  0  0  0
    2.0699   -3.0598    0.2182 C   0  0  0  0  0  0  0  0  0  0  0  0
    2.6472   -0.2966   -3.0374 N   0  0  0  0  0  0  0  0  0  0  0  0
    2.4384    0.6396   -4.0366 C   0  0  0  0  0  0  0  0  0  0  0  0
    2.5383    2.0509   -4.0249 C   0  0  0  0  0  0  0  0  0  0  0  0
    2.2380    2.5980   -5.2042 N   0  0  0  0  0  0  0  0  0  0  0  0
    1.9982    1.5326   -5.9960 N   0  0  0  0  0  0  0  0  0  0  0  0
    1.6220    1.7421   -7.3922 C   0  0  0  0  0  0  0  0  0  0  0  0
    2.8094    1.7648   -8.3266 C   0  0  0  0  0  0  0  0  0  0  0  0
    2.8916    0.8608   -9.3980 C   0  0  0  0  0  0  0  0  0  0  0  0
    3.9645    0.9111  -10.2913 C   0  0  0  0  0  0  0  0  0  0  0  0
    4.9674    1.8648  -10.1295 C   0  0  0  0  0  0  0  0  0  0  0  0
    4.8958    2.7728   -9.0761 C   0  0  0  0  0  0  0  0  0  0  0  0
    3.8232    2.7266   -8.1837 C   0  0  0  0  0  0  0  0  0  0  0  0
    2.0516    0.3398   -5.3267 C   0  0  0  0  0  0  0  0  0  0  0  0
    3.5887   -0.8485    0.1330 H   0  0  0  0  0  0  0  0  0  0  0  0
    4.0249   -1.8528   -1.2527 H   0  0  0  0  0  0  0  0  0  0  0  0
   -0.0875   -1.6264   -0.4694 H   0  0  0  0  0  0  0  0  0  0  0  0
    0.7421   -0.2028   -0.9918 H   0  0  0  0  0  0  0  0  0  0  0  0
    0.1525    0.1314    1.3478 H   0  0  0  0  0  0  0  0  0  0  0  0
    1.8828   -0.0169    1.2751 H   0  0  0  0  0  0  0  0  0  0  0  0
   -0.7880   -2.6982    1.3101 H   0  0  0  0  0  0  0  0  0  0  0  0
   -1.1263   -1.4016    2.4359 H   0  0  0  0  0  0  0  0  0  0  0  0
   -0.2554   -2.7787    4.3256 H   0  0  0  0  0  0  0  0  0  0  0  0
    0.0052   -4.1119    3.1520 H   0  0  0  0  0  0  0  0  0  0  0  0
   -4.1698   -4.0695    4.8328 H   0  0  0  0  0  0  0  0  0  0  0  0
   -4.4548   -5.9155    6.4981 H   0  0  0  0  0  0  0  0  0  0  0  0
   -2.5348   -7.4577    6.9380 H   0  0  0  0  0  0  0  0  0  0  0  0
   -0.4121   -7.1026    5.6680 H   0  0  0  0  0  0  0  0  0  0  0  0
    1.8572   -3.6092    2.3095 H   0  0  0  0  0  0  0  0  0  0  0  0
    2.9291   -2.2773    2.0411 H   0  0  0  0  0  0  0  0  0  0  0  0
    1.2671   -3.7735   -0.0131 H   0  0  0  0  0  0  0  0  0  0  0  0
    3.0044   -3.6110    0.0549 H   0  0  0  0  0  0  0  0  0  0  0  0
    2.3772   -1.2559   -3.2137 H   0  0  0  0  0  0  0  0  0  0  0  0
    2.7965    2.7011   -3.1963 H   0  0  0  0  0  0  0  0  0  0  0  0
    1.0740    2.6897   -7.4551 H   0  0  0  0  0  0  0  0  0  0  0  0
    0.9224    0.9420   -7.6575 H   0  0  0  0  0  0  0  0  0  0  0  0
    2.1154    0.1150   -9.5538 H   0  0  0  0  0  0  0  0  0  0  0  0
    4.0167    0.2079  -11.1189 H   0  0  0  0  0  0  0  0  0  0  0  0
    5.8012    1.9043  -10.8259 H   0  0  0  0  0  0  0  0  0  0  0  0
    5.6737    3.5216   -8.9481 H   0  0  0  0  0  0  0  0  0  0  0  0
    3.7808    3.4523   -7.3714 H   0  0  0  0  0  0  0  0  0  0  0  0
    1.8467   -0.5947   -5.8208 H   0  0  0  0  0  0  0  0  0  0  0  0
  1  2  2  0  0  0  0
  2  3  1  0  0  0  0
  2 19  1  0  0  0  0
  3  4  1  0  0  0  0
  3 32  1  0  0  0  0
  3 33  1  0  0  0  0
  4  5  1  0  0  0  0
  4 18  1  0  0  0  0
  5  6  1  0  0  0  0
  5 34  1  0  0  0  0
  5 35  1  0  0  0  0
  6  7  1  0  0  0  0
  6 36  1  0  0  0  0
  6 37  1  0  0  0  0
  7  8  1  0  0  0  0
  7 17  1  0  0  0  0
  8  9  1  0  0  0  0
  8 38  1  0  0  0  0
  8 39  1  0  0  0  0
  9 10  1  0  0  0  0
  9 40  1  0  0  0  0
  9 41  1  0  0  0  0
 10 11  1  0  0  0  0
 11 12  1  0  0  0  0
 11 16  2  0  0  0  0
 12 13  2  0  0  0  0
 12 42  1  0  0  0  0
 13 14  1  0  0  0  0
 13 43  1  0  0  0  0
 14 15  2  0  0  0  0
 14 44  1  0  0  0  0
 15 16  1  0  0  0  0
 15 45  1  0  0  0  0
 17 18  1  0  0  0  0
 17 46  1  0  0  0  0
 17 47  1  0  0  0  0
 18 48  1  0  0  0  0
 18 49  1  0  0  0  0
 19 20  1  0  0  0  0
 19 50  1  0  0  0  0
 20 21  1  0  0  0  0
 20 31  2  0  0  0  0
 21 22  2  0  0  0  0
 21 51  1  0  0  0  0
 22 23  1  0  0  0  0
 23 24  1  0  0  0  0
 23 31  1  0  0  0  0
 24 25  1  0  0  0  0
 24 52  1  0  0  0  0
 24 53  1  0  0  0  0
 25 26  1  0  0  0  0
 25 30  2  0  0  0  0
 26 27  2  0  0  0  0
 26 54  1  0  0  0  0
 27 28  1  0  0  0  0
 27 55  1  0  0  0  0
 28 29  2  0  0  0  0
 28 56  1  0  0  0  0
 29 30  1  0  0  0  0
 29 57  1  0  0  0  0
 30 58  1  0  0  0  0
 31 59  1  0  0  0  0
M  END
$$$$
