
 OpenBabel11072213583D

 65 69  0  0  0  0  0  0  0  0999 V2000
   11.2583    4.5957    3.4337 C   0  0  0  0  0  0  0  0  0  0  0  0
   10.6135    4.4389    2.1692 O   0  0  0  0  0  0  0  0  0  0  0  0
    9.2360    4.4196    2.2169 C   0  0  0  0  0  0  0  0  0  0  0  0
    8.5305    5.1190    3.1893 C   0  0  0  0  0  0  0  0  0  0  0  0
    7.1489    5.0428    3.2354 C   0  0  0  0  0  0  0  0  0  0  0  0
    6.4219    4.2471    2.3382 C   0  0  0  0  0  0  0  0  0  0  0  0
    4.9064    4.1792    2.5280 C   0  0  0  0  0  0  0  0  0  0  0  0
    4.4727    4.4810    3.9152 N   0  0  0  0  0  0  0  0  0  0  0  0
    4.7433    3.3853    4.8673 C   0  0  0  0  0  0  0  0  0  0  0  0
    3.8344    2.1490    4.7120 C   0  0  0  0  0  0  0  0  0  0  0  0
    2.3915    2.4206    4.6105 N   0  0  0  0  0  0  0  0  0  0  0  0
    1.7039    2.4031    5.9038 C   0  0  0  0  0  0  0  0  0  0  0  0
    0.1740    2.3048    5.7316 C   0  0  0  0  0  0  0  0  0  0  0  0
   -0.2595    1.2153    4.7392 C   0  0  0  0  0  0  0  0  0  0  0  0
    0.1594   -0.1722    5.2156 C   0  0  0  0  0  0  0  0  0  0  0  0
   -0.1993   -1.2015    4.2825 N   0  0  0  0  0  0  0  0  0  0  0  0
   -1.4703   -1.8017    4.2016 C   0  0  0  0  0  0  0  0  0  0  0  0
   -2.4665   -1.5428    4.8566 O   0  0  0  0  0  0  0  0  0  0  0  0
   -1.3742   -2.7868    3.2095 N   0  0  0  0  0  0  0  0  0  0  0  0
   -0.0844   -2.7963    2.6980 C   0  0  0  0  0  0  0  0  0  0  0  0
    0.4584   -3.6154    1.7353 C   0  0  0  0  0  0  0  0  0  0  0  0
    1.8037   -3.4090    1.4172 C   0  0  0  0  0  0  0  0  0  0  0  0
    2.5526   -2.3958    2.0531 C   0  0  0  0  0  0  0  0  0  0  0  0
    1.9756   -1.5736    3.0312 C   0  0  0  0  0  0  0  0  0  0  0  0
    0.6521   -1.8032    3.3445 C   0  0  0  0  0  0  0  0  0  0  0  0
    2.0990    3.6194    3.8020 C   0  0  0  0  0  0  0  0  0  0  0  0
    3.0464    4.8166    3.9950 C   0  0  0  0  0  0  0  0  0  0  0  0
    7.1156    3.6161    1.2622 C   0  0  0  0  0  0  0  0  0  0  0  0
    6.4636    2.9125    0.2177 C   0  0  0  0  0  0  0  0  0  0  0  0
    7.1704    2.3323   -0.8414 C   0  0  0  0  0  0  0  0  0  0  0  0
    8.5532    2.4237   -0.8807 C   0  0  0  0  0  0  0  0  0  0  0  0
    9.2281    3.0956    0.1375 C   0  0  0  0  0  0  0  0  0  0  0  0
    8.5401    3.7091    1.2088 C   0  0  0  0  0  0  0  0  0  0  0  0
   12.3327    4.4541    3.2889 H   0  0  0  0  0  0  0  0  0  0  0  0
   10.9111    3.8427    4.1512 H   0  0  0  0  0  0  0  0  0  0  0  0
   11.1206    5.6065    3.8314 H   0  0  0  0  0  0  0  0  0  0  0  0
    9.0213    5.7439    3.9244 H   0  0  0  0  0  0  0  0  0  0  0  0
    6.6353    5.6095    4.0101 H   0  0  0  0  0  0  0  0  0  0  0  0
    4.5198    3.2062    2.2081 H   0  0  0  0  0  0  0  0  0  0  0  0
    4.4916    4.9376    1.8505 H   0  0  0  0  0  0  0  0  0  0  0  0
    4.6103    3.7869    5.8812 H   0  0  0  0  0  0  0  0  0  0  0  0
    5.7926    3.0720    4.8202 H   0  0  0  0  0  0  0  0  0  0  0  0
    4.0440    1.4491    5.5315 H   0  0  0  0  0  0  0  0  0  0  0  0
    4.1301    1.6111    3.8031 H   0  0  0  0  0  0  0  0  0  0  0  0
    1.9648    3.2702    6.5209 H   0  0  0  0  0  0  0  0  0  0  0  0
    2.0200    1.5198    6.4745 H   0  0  0  0  0  0  0  0  0  0  0  0
   -0.2352    3.2669    5.4035 H   0  0  0  0  0  0  0  0  0  0  0  0
   -0.2841    2.1084    6.7086 H   0  0  0  0  0  0  0  0  0  0  0  0
    0.1530    1.4109    3.7412 H   0  0  0  0  0  0  0  0  0  0  0  0
   -1.3488    1.2560    4.6169 H   0  0  0  0  0  0  0  0  0  0  0  0
   -0.3533   -0.3845    6.1611 H   0  0  0  0  0  0  0  0  0  0  0  0
    1.2332   -0.2369    5.4102 H   0  0  0  0  0  0  0  0  0  0  0  0
   -2.1371   -3.3845    2.9460 H   0  0  0  0  0  0  0  0  0  0  0  0
   -0.1237   -4.3899    1.2517 H   0  0  0  0  0  0  0  0  0  0  0  0
    2.2810   -4.0388    0.6693 H   0  0  0  0  0  0  0  0  0  0  0  0
    3.5969   -2.2547    1.7794 H   0  0  0  0  0  0  0  0  0  0  0  0
    2.5553   -0.7940    3.5110 H   0  0  0  0  0  0  0  0  0  0  0  0
    1.0799    3.9820    3.9672 H   0  0  0  0  0  0  0  0  0  0  0  0
    2.1170    3.3154    2.7493 H   0  0  0  0  0  0  0  0  0  0  0  0
    2.8583    5.2608    4.9820 H   0  0  0  0  0  0  0  0  0  0  0  0
    2.7975    5.6035    3.2728 H   0  0  0  0  0  0  0  0  0  0  0  0
    5.3804    2.8279    0.1938 H   0  0  0  0  0  0  0  0  0  0  0  0
    6.6376    1.8213   -1.6402 H   0  0  0  0  0  0  0  0  0  0  0  0
    9.1110    1.9867   -1.7048 H   0  0  0  0  0  0  0  0  0  0  0  0
   10.3143    3.1643    0.0788 H   0  0  0  0  0  0  0  0  0  0  0  0
  1  2  1  0  0  0  0
  1 34  1  0  0  0  0
  1 35  1  0  0  0  0
  1 36  1  0  0  0  0
  2  3  1  0  0  0  0
  3  4  1  0  0  0  0
  3 33  2  0  0  0  0
  4  5  2  0  0  0  0
  4 37  1  0  0  0  0
  5  6  1  0  0  0  0
  5 38  1  0  0  0  0
  6  7  1  0  0  0  0
  6 28  2  0  0  0  0
  7  8  1  0  0  0  0
  7 39  1  0  0  0  0
  7 40  1  0  0  0  0
  8  9  1  0  0  0  0
  8 27  1  0  0  0  0
  9 10  1  0  0  0  0
  9 41  1  0  0  0  0
  9 42  1  0  0  0  0
 10 11  1  0  0  0  0
 10 43  1  0  0  0  0
 10 44  1  0  0  0  0
 11 12  1  0  0  0  0
 11 26  1  0  0  0  0
 12 13  1  0  0  0  0
 12 45  1  0  0  0  0
 12 46  1  0  0  0  0
 13 14  1  0  0  0  0
 13 47  1  0  0  0  0
 13 48  1  0  0  0  0
 14 15  1  0  0  0  0
 14 49  1  0  0  0  0
 14 50  1  0  0  0  0
 15 16  1  0  0  0  0
 15 51  1  0  0  0  0
 15 52  1  0  0  0  0
 16 17  1  0  0  0  0
 16 25  1  0  0  0  0
 17 18  2  0  0  0  0
 17 19  1  0  0  0  0
 19 20  1  0  0  0  0
 19 53  1  0  0  0  0
 20 21  1  0  0  0  0
 20 25  2  0  0  0  0
 21 22  2  0  0  0  0
 21 54  1  0  0  0  0
 22 23  1  0  0  0  0
 22 55  1  0  0  0  0
 23 24  2  0  0  0  0
 23 56  1  0  0  0  0
 24 25  1  0  0  0  0
 24 57  1  0  0  0  0
 26 27  1  0  0  0  0
 26 58  1  0  0  0  0
 26 59  1  0  0  0  0
 27 60  1  0  0  0  0
 27 61  1  0  0  0  0
 28 29  1  0  0  0  0
 28 33  1  0  0  0  0
 29 30  2  0  0  0  0
 29 62  1  0  0  0  0
 30 31  1  0  0  0  0
 30 63  1  0  0  0  0
 31 32  2  0  0  0  0
 31 64  1  0  0  0  0
 32 33  1  0  0  0  0
 32 65  1  0  0  0  0
M  END
$$$$
