
 OpenBabel11072213583D

 66 70  0  0  0  0  0  0  0  0999 V2000
    6.9299   -0.8107    2.3724 C   0  0  0  0  0  0  0  0  0  0  0  0
    5.9464   -0.5262    1.3858 O   0  0  0  0  0  0  0  0  0  0  0  0
    6.1257   -1.3361    0.2218 C   0  0  0  0  0  0  0  0  0  0  0  0
    5.0454   -0.9847   -0.7891 C   0  0  0  0  0  0  0  0  0  0  0  0
    5.1417   -1.7867   -1.9929 N   0  0  0  0  0  0  0  0  0  0  0  0
    5.8986   -1.4364   -3.0810 C   0  0  0  0  0  0  0  0  0  0  0  0
    5.6685   -2.3605   -4.0722 C   0  0  0  0  0  0  0  0  0  0  0  0
    6.1928   -2.3066   -5.3209 N   0  0  0  0  0  0  0  0  0  0  0  0
    7.5213   -1.7459   -5.5981 C   0  0  0  0  0  0  0  0  0  0  0  0
    7.4453   -0.6462   -6.6799 C   0  0  0  0  0  0  0  0  0  0  0  0
    6.7428   -1.0459   -7.9251 N   0  0  0  0  0  0  0  0  0  0  0  0
    7.4999   -2.0765   -8.6546 C   0  0  0  0  0  0  0  0  0  0  0  0
    6.9010   -2.3982  -10.0321 C   0  0  0  0  0  0  0  0  0  0  0  0
    6.7005   -1.1713  -10.9263 C   0  0  0  0  0  0  0  0  0  0  0  0
    8.0131   -0.4417  -11.1978 C   0  0  0  0  0  0  0  0  0  0  0  0
    7.8405    0.6913  -12.0620 N   0  0  0  0  0  0  0  0  0  0  0  0
    7.8578    0.6400  -13.4672 C   0  0  0  0  0  0  0  0  0  0  0  0
    7.9791   -0.3410  -14.1806 O   0  0  0  0  0  0  0  0  0  0  0  0
    7.7138    1.9630  -13.9146 N   0  0  0  0  0  0  0  0  0  0  0  0
    7.6120    2.8037  -12.8123 C   0  0  0  0  0  0  0  0  0  0  0  0
    7.4853    4.1726  -12.7763 C   0  0  0  0  0  0  0  0  0  0  0  0
    7.4161    4.7661  -11.5124 C   0  0  0  0  0  0  0  0  0  0  0  0
    7.4614    3.9831  -10.3383 C   0  0  0  0  0  0  0  0  0  0  0  0
    7.5899    2.5889  -10.4031 C   0  0  0  0  0  0  0  0  0  0  0  0
    7.6740    2.0232  -11.6574 C   0  0  0  0  0  0  0  0  0  0  0  0
    5.3929   -1.5212   -7.5317 C   0  0  0  0  0  0  0  0  0  0  0  0
    5.3868   -2.6654   -6.4950 C   0  0  0  0  0  0  0  0  0  0  0  0
    4.7787   -3.3473   -3.5419 C   0  0  0  0  0  0  0  0  0  0  0  0
    4.2068   -4.5386   -4.0470 C   0  0  0  0  0  0  0  0  0  0  0  0
    3.3530   -5.3012   -3.2457 C   0  0  0  0  0  0  0  0  0  0  0  0
    3.0790   -4.9079   -1.9420 C   0  0  0  0  0  0  0  0  0  0  0  0
    3.6369   -3.7417   -1.4089 C   0  0  0  0  0  0  0  0  0  0  0  0
    4.4769   -2.9715   -2.2296 C   0  0  0  0  0  0  0  0  0  0  0  0
    6.7438   -0.1708    3.2388 H   0  0  0  0  0  0  0  0  0  0  0  0
    7.9308   -0.5958    1.9862 H   0  0  0  0  0  0  0  0  0  0  0  0
    6.8631   -1.8563    2.6878 H   0  0  0  0  0  0  0  0  0  0  0  0
    6.0608   -2.3947    0.4991 H   0  0  0  0  0  0  0  0  0  0  0  0
    7.1192   -1.1479   -0.2032 H   0  0  0  0  0  0  0  0  0  0  0  0
    5.1157    0.0715   -1.0776 H   0  0  0  0  0  0  0  0  0  0  0  0
    4.0453   -1.1125   -0.3604 H   0  0  0  0  0  0  0  0  0  0  0  0
    6.4953   -0.5356   -3.0744 H   0  0  0  0  0  0  0  0  0  0  0  0
    8.1792   -2.5560   -5.9350 H   0  0  0  0  0  0  0  0  0  0  0  0
    7.9971   -1.3299   -4.7027 H   0  0  0  0  0  0  0  0  0  0  0  0
    8.4538   -0.2884   -6.9197 H   0  0  0  0  0  0  0  0  0  0  0  0
    6.9184    0.2215   -6.2590 H   0  0  0  0  0  0  0  0  0  0  0  0
    7.5890   -3.0108   -8.0898 H   0  0  0  0  0  0  0  0  0  0  0  0
    8.5295   -1.7277   -8.7998 H   0  0  0  0  0  0  0  0  0  0  0  0
    5.9416   -2.9158   -9.9150 H   0  0  0  0  0  0  0  0  0  0  0  0
    7.5619   -3.1117  -10.5396 H   0  0  0  0  0  0  0  0  0  0  0  0
    5.9735   -0.4844  -10.4761 H   0  0  0  0  0  0  0  0  0  0  0  0
    6.2568   -1.4993  -11.8747 H   0  0  0  0  0  0  0  0  0  0  0  0
    8.7072   -1.1345  -11.6889 H   0  0  0  0  0  0  0  0  0  0  0  0
    8.4942   -0.1042  -10.2757 H   0  0  0  0  0  0  0  0  0  0  0  0
    7.7027    2.2251  -14.8859 H   0  0  0  0  0  0  0  0  0  0  0  0
    7.4497    4.7675  -13.6800 H   0  0  0  0  0  0  0  0  0  0  0  0
    7.3239    5.8473  -11.4306 H   0  0  0  0  0  0  0  0  0  0  0  0
    7.3984    4.4731   -9.3689 H   0  0  0  0  0  0  0  0  0  0  0  0
    7.6172    1.9922   -9.4985 H   0  0  0  0  0  0  0  0  0  0  0  0
    4.8103   -1.8189   -8.4098 H   0  0  0  0  0  0  0  0  0  0  0  0
    4.8456   -0.6670   -7.1098 H   0  0  0  0  0  0  0  0  0  0  0  0
    5.7764   -3.5918   -6.9323 H   0  0  0  0  0  0  0  0  0  0  0  0
    4.3393   -2.8498   -6.2332 H   0  0  0  0  0  0  0  0  0  0  0  0
    4.4329   -4.8722   -5.0547 H   0  0  0  0  0  0  0  0  0  0  0  0
    2.9095   -6.2088   -3.6471 H   0  0  0  0  0  0  0  0  0  0  0  0
    2.4231   -5.5168   -1.3250 H   0  0  0  0  0  0  0  0  0  0  0  0
    3.4220   -3.4521   -0.3864 H   0  0  0  0  0  0  0  0  0  0  0  0
  1  2  1  0  0  0  0
  1 34  1  0  0  0  0
  1 35  1  0  0  0  0
  1 36  1  0  0  0  0
  2  3  1  0  0  0  0
  3  4  1  0  0  0  0
  3 37  1  0  0  0  0
  3 38  1  0  0  0  0
  4  5  1  0  0  0  0
  4 39  1  0  0  0  0
  4 40  1  0  0  0  0
  5  6  1  0  0  0  0
  5 33  1  0  0  0  0
  6  7  2  0  0  0  0
  6 41  1  0  0  0  0
  7  8  1  0  0  0  0
  7 28  1  0  0  0  0
  8  9  1  0  0  0  0
  8 27  1  0  0  0  0
  9 10  1  0  0  0  0
  9 42  1  0  0  0  0
  9 43  1  0  0  0  0
 10 11  1  0  0  0  0
 10 44  1  0  0  0  0
 10 45  1  0  0  0  0
 11 12  1  0  0  0  0
 11 26  1  0  0  0  0
 12 13  1  0  0  0  0
 12 46  1  0  0  0  0
 12 47  1  0  0  0  0
 13 14  1  0  0  0  0
 13 48  1  0  0  0  0
 13 49  1  0  0  0  0
 14 15  1  0  0  0  0
 14 50  1  0  0  0  0
 14 51  1  0  0  0  0
 15 16  1  0  0  0  0
 15 52  1  0  0  0  0
 15 53  1  0  0  0  0
 16 17  1  0  0  0  0
 16 25  1  0  0  0  0
 17 18  2  0  0  0  0
 17 19  1  0  0  0  0
 19 20  1  0  0  0  0
 19 54  1  0  0  0  0
 20 21  1  0  0  0  0
 20 25  2  0  0  0  0
 21 22  2  0  0  0  0
 21 55  1  0  0  0  0
 22 23  1  0  0  0  0
 22 56  1  0  0  0  0
 23 24  2  0  0  0  0
 23 57  1  0  0  0  0
 24 25  1  0  0  0  0
 24 58  1  0  0  0  0
 26 27  1  0  0  0  0
 26 59  1  0  0  0  0
 26 60  1  0  0  0  0
 27 61  1  0  0  0  0
 27 62  1  0  0  0  0
 28 29  1  0  0  0  0
 28 33  2  0  0  0  0
 29 30  2  0  0  0  0
 29 63  1  0  0  0  0
 30 31  1  0  0  0  0
 30 64  1  0  0  0  0
 31 32  2  0  0  0  0
 31 65  1  0  0  0  0
 32 33  1  0  0  0  0
 32 66  1  0  0  0  0
M  END
$$$$
