
 OpenBabel11072213583D

 41 43  0  0  0  0  0  0  0  0999 V2000
   -3.5657   -0.9360    4.6337 C   0  0  0  0  0  0  0  0  0  0  0  0
   -3.8093   -0.3244    3.4065 C   0  0  0  0  0  0  0  0  0  0  0  0
   -3.4159   -0.9593    2.2336 C   0  0  0  0  0  0  0  0  0  0  0  0
   -2.7909   -2.1900    2.3370 C   0  0  0  0  0  0  0  0  0  0  0  0
   -2.3943   -2.7868    1.1508 O   0  0  0  0  0  0  0  0  0  0  0  0
   -1.8222   -4.0731    1.3929 C   0  0  0  0  0  0  0  0  0  0  0  0
   -1.3884   -4.7364    0.0791 C   0  0  0  0  0  0  0  0  0  0  0  0
   -1.1570   -6.1724    0.2110 N   0  0  0  0  0  0  0  0  0  0  0  0
   -0.5949   -6.8001   -0.9912 C   0  0  0  0  0  0  0  0  0  0  0  0
   -0.7956   -8.3306   -0.8813 C   0  0  0  0  0  0  0  0  0  0  0  0
   -0.2116   -8.9593    0.3293 N   0  0  0  0  0  0  0  0  0  0  0  0
    1.2620   -9.0491    0.2770 C   0  0  0  0  0  0  0  0  0  0  0  0
    1.7902   -9.8613   -0.8662 C   0  0  0  0  0  0  0  0  0  0  0  0
    2.1223   -9.4583   -2.0786 N   0  0  0  0  0  0  0  0  0  0  0  0
    2.5175  -10.6057   -2.7053 C   0  0  0  0  0  0  0  0  0  0  0  0
    2.4285  -11.6691   -1.8423 C   0  0  0  0  0  0  0  0  0  0  0  0
    1.9595  -11.2057   -0.6515 O   0  0  0  0  0  0  0  0  0  0  0  0
   -0.6286   -8.1833    1.5198 C   0  0  0  0  0  0  0  0  0  0  0  0
   -0.4419   -6.6485    1.4010 C   0  0  0  0  0  0  0  0  0  0  0  0
   -2.5428   -2.8078    3.5146 N   0  0  0  0  0  0  0  0  0  0  0  0
   -2.9373   -2.1708    4.6333 C   0  0  0  0  0  0  0  0  0  0  0  0
   -3.8620   -0.4660    5.5639 H   0  0  0  0  0  0  0  0  0  0  0  0
   -4.3018    0.6436    3.3691 H   0  0  0  0  0  0  0  0  0  0  0  0
   -3.5944   -0.5125    1.2644 H   0  0  0  0  0  0  0  0  0  0  0  0
   -2.5706   -4.7122    1.8815 H   0  0  0  0  0  0  0  0  0  0  0  0
   -0.9357   -3.9659    2.0311 H   0  0  0  0  0  0  0  0  0  0  0  0
   -0.5176   -4.2076   -0.3275 H   0  0  0  0  0  0  0  0  0  0  0  0
   -2.1964   -4.5948   -0.6517 H   0  0  0  0  0  0  0  0  0  0  0  0
    0.4638   -6.5510   -1.1186 H   0  0  0  0  0  0  0  0  0  0  0  0
   -1.1177   -6.4479   -1.8882 H   0  0  0  0  0  0  0  0  0  0  0  0
   -0.4531   -8.8226   -1.7979 H   0  0  0  0  0  0  0  0  0  0  0  0
   -1.8782   -8.5245   -0.8554 H   0  0  0  0  0  0  0  0  0  0  0  0
    1.6153   -9.5240    1.2015 H   0  0  0  0  0  0  0  0  0  0  0  0
    1.7300   -8.0599    0.2346 H   0  0  0  0  0  0  0  0  0  0  0  0
    2.8413  -10.6121   -3.7380 H   0  0  0  0  0  0  0  0  0  0  0  0
    2.6363  -12.7270   -1.9001 H   0  0  0  0  0  0  0  0  0  0  0  0
   -0.1212   -8.5500    2.4202 H   0  0  0  0  0  0  0  0  0  0  0  0
   -1.6969   -8.3799    1.6897 H   0  0  0  0  0  0  0  0  0  0  0  0
    0.6198   -6.3779    1.3623 H   0  0  0  0  0  0  0  0  0  0  0  0
   -0.8475   -6.2158    2.3206 H   0  0  0  0  0  0  0  0  0  0  0  0
   -2.7285   -2.6922    5.5628 H   0  0  0  0  0  0  0  0  0  0  0  0
  1  2  1  0  0  0  0
  1 21  2  0  0  0  0
  1 22  1  0  0  0  0
  2  3  2  0  0  0  0
  2 23  1  0  0  0  0
  3  4  1  0  0  0  0
  3 24  1  0  0  0  0
  4  5  1  0  0  0  0
  4 20  2  0  0  0  0
  5  6  1  0  0  0  0
  6  7  1  0  0  0  0
  6 25  1  0  0  0  0
  6 26  1  0  0  0  0
  7  8  1  0  0  0  0
  7 27  1  0  0  0  0
  7 28  1  0  0  0  0
  8  9  1  0  0  0  0
  8 19  1  0  0  0  0
  9 10  1  0  0  0  0
  9 29  1  0  0  0  0
  9 30  1  0  0  0  0
 10 11  1  0  0  0  0
 10 31  1  0  0  0  0
 10 32  1  0  0  0  0
 11 12  1  0  0  0  0
 11 18  1  0  0  0  0
 12 13  1  0  0  0  0
 12 33  1  0  0  0  0
 12 34  1  0  0  0  0
 13 14  2  0  0  0  0
 13 17  1  0  0  0  0
 14 15  1  0  0  0  0
 15 16  2  0  0  0  0
 15 35  1  0  0  0  0
 16 17  1  0  0  0  0
 16 36  1  0  0  0  0
 18 19  1  0  0  0  0
 18 37  1  0  0  0  0
 18 38  1  0  0  0  0
 19 39  1  0  0  0  0
 19 40  1  0  0  0  0
 20 21  1  0  0  0  0
 21 41  1  0  0  0  0
M  END
$$$$
