
 OpenBabel11072213583D

 45 47  0  0  0  0  0  0  0  0999 V2000
    1.5913    2.7164    2.4756 C   0  0  0  0  0  0  0  0  0  0  0  0
    0.2755    2.9799    1.8594 C   0  0  0  0  0  0  0  0  0  0  0  0
   -0.5549    4.0796    1.8429 C   0  0  0  0  0  0  0  0  0  0  0  0
   -1.6886    3.7110    1.0808 C   0  0  0  0  0  0  0  0  0  0  0  0
   -1.4731    2.4138    0.6548 C   0  0  0  0  0  0  0  0  0  0  0  0
   -2.2301    1.4869   -0.2414 C   0  0  0  0  0  0  0  0  0  0  0  0
   -3.6001    1.1985    0.2285 N   0  0  0  0  0  0  0  0  0  0  0  0
   -3.6169    0.3425    1.4347 C   0  0  0  0  0  0  0  0  0  0  0  0
   -3.2815   -1.1514    1.1946 C   0  0  0  0  0  0  0  0  0  0  0  0
   -4.0716   -1.8111    0.1347 N   0  0  0  0  0  0  0  0  0  0  0  0
   -5.4185   -2.1984    0.6074 C   0  0  0  0  0  0  0  0  0  0  0  0
   -6.1930   -3.0577   -0.4106 C   0  0  0  0  0  0  0  0  0  0  0  0
   -7.4517   -3.4936    0.1246 O   0  0  0  0  0  0  0  0  0  0  0  0
   -8.2010   -4.1555   -0.8381 C   0  0  0  0  0  0  0  0  0  0  0  0
   -9.4654   -4.5863   -0.4687 C   0  0  0  0  0  0  0  0  0  0  0  0
  -10.2402   -5.2436   -1.4252 C   0  0  0  0  0  0  0  0  0  0  0  0
   -9.7270   -5.4487   -2.7021 C   0  0  0  0  0  0  0  0  0  0  0  0
   -8.4519   -4.9845   -2.9742 C   0  0  0  0  0  0  0  0  0  0  0  0
   -7.6817   -4.3484   -2.0703 N   0  0  0  0  0  0  0  0  0  0  0  0
   -4.0740   -0.9574   -1.0700 C   0  0  0  0  0  0  0  0  0  0  0  0
   -4.3941    0.5382   -0.8302 C   0  0  0  0  0  0  0  0  0  0  0  0
   -0.2780    1.9620    1.1414 O   0  0  0  0  0  0  0  0  0  0  0  0
    2.0631    3.6476    2.8046 H   0  0  0  0  0  0  0  0  0  0  0  0
    2.2662    2.2310    1.7640 H   0  0  0  0  0  0  0  0  0  0  0  0
    1.4807    2.0653    3.3481 H   0  0  0  0  0  0  0  0  0  0  0  0
   -0.3609    5.0311    2.3187 H   0  0  0  0  0  0  0  0  0  0  0  0
   -2.5533    4.3169    0.8477 H   0  0  0  0  0  0  0  0  0  0  0  0
   -1.6518    0.5725   -0.4152 H   0  0  0  0  0  0  0  0  0  0  0  0
   -2.2911    2.0009   -1.2109 H   0  0  0  0  0  0  0  0  0  0  0  0
   -4.6236    0.4062    1.8680 H   0  0  0  0  0  0  0  0  0  0  0  0
   -2.9497    0.7441    2.2057 H   0  0  0  0  0  0  0  0  0  0  0  0
   -3.3758   -1.7024    2.1383 H   0  0  0  0  0  0  0  0  0  0  0  0
   -2.2226   -1.2356    0.9190 H   0  0  0  0  0  0  0  0  0  0  0  0
   -6.0224   -1.3285    0.8921 H   0  0  0  0  0  0  0  0  0  0  0  0
   -5.3164   -2.8015    1.5202 H   0  0  0  0  0  0  0  0  0  0  0  0
   -5.5865   -3.9354   -0.6695 H   0  0  0  0  0  0  0  0  0  0  0  0
   -6.3864   -2.4538   -1.3031 H   0  0  0  0  0  0  0  0  0  0  0  0
   -9.8400   -4.4134    0.5307 H   0  0  0  0  0  0  0  0  0  0  0  0
  -11.2383   -5.5936   -1.1762 H   0  0  0  0  0  0  0  0  0  0  0  0
  -10.3045   -5.9537   -3.4674 H   0  0  0  0  0  0  0  0  0  0  0  0
   -8.0027   -5.1126   -3.9546 H   0  0  0  0  0  0  0  0  0  0  0  0
   -4.7495   -1.3448   -1.8389 H   0  0  0  0  0  0  0  0  0  0  0  0
   -3.0791   -1.0343   -1.5266 H   0  0  0  0  0  0  0  0  0  0  0  0
   -5.4549    0.6329   -0.5635 H   0  0  0  0  0  0  0  0  0  0  0  0
   -4.2869    1.0825   -1.7775 H   0  0  0  0  0  0  0  0  0  0  0  0
  1  2  1  0  0  0  0
  1 23  1  0  0  0  0
  1 24  1  0  0  0  0
  1 25  1  0  0  0  0
  2  3  2  0  0  0  0
  2 22  1  0  0  0  0
  3  4  1  0  0  0  0
  3 26  1  0  0  0  0
  4  5  2  0  0  0  0
  4 27  1  0  0  0  0
  5  6  1  0  0  0  0
  5 22  1  0  0  0  0
  6  7  1  0  0  0  0
  6 28  1  0  0  0  0
  6 29  1  0  0  0  0
  7  8  1  0  0  0  0
  7 21  1  0  0  0  0
  8  9  1  0  0  0  0
  8 30  1  0  0  0  0
  8 31  1  0  0  0  0
  9 10  1  0  0  0  0
  9 32  1  0  0  0  0
  9 33  1  0  0  0  0
 10 11  1  0  0  0  0
 10 20  1  0  0  0  0
 11 12  1  0  0  0  0
 11 34  1  0  0  0  0
 11 35  1  0  0  0  0
 12 13  1  0  0  0  0
 12 36  1  0  0  0  0
 12 37  1  0  0  0  0
 13 14  1  0  0  0  0
 14 15  1  0  0  0  0
 14 19  2  0  0  0  0
 15 16  2  0  0  0  0
 15 38  1  0  0  0  0
 16 17  1  0  0  0  0
 16 39  1  0  0  0  0
 17 18  2  0  0  0  0
 17 40  1  0  0  0  0
 18 19  1  0  0  0  0
 18 41  1  0  0  0  0
 20 21  1  0  0  0  0
 20 42  1  0  0  0  0
 20 43  1  0  0  0  0
 21 44  1  0  0  0  0
 21 45  1  0  0  0  0
M  END
$$$$
