
 OpenBabel11072213583D

 44 46  0  0  0  0  0  0  0  0999 V2000
    2.2663   -0.8748    1.4441 C   0  0  0  0  0  0  0  0  0  0  0  0
    2.1242    0.0402    0.3678 O   0  0  0  0  0  0  0  0  0  0  0  0
    2.9418    1.1396    0.3589 C   0  0  0  0  0  0  0  0  0  0  0  0
    3.9110    1.4281    1.3226 C   0  0  0  0  0  0  0  0  0  0  0  0
    4.6901    2.5895    1.2234 C   0  0  0  0  0  0  0  0  0  0  0  0
    4.5149    3.4835    0.1595 C   0  0  0  0  0  0  0  0  0  0  0  0
    5.3513    4.7393    0.0521 C   0  0  0  0  0  0  0  0  0  0  0  0
    4.5025    5.9248    0.0717 N   0  0  0  0  0  0  0  0  0  0  0  0
    5.2740    7.1615   -0.0262 C   0  0  0  0  0  0  0  0  0  0  0  0
    4.3537    8.3560   -0.0238 C   0  0  0  0  0  0  0  0  0  0  0  0
    4.4264    9.3673    0.9250 C   0  0  0  0  0  0  0  0  0  0  0  0
    3.5173   10.4114    0.8355 C   0  0  0  0  0  0  0  0  0  0  0  0
    2.5683   10.5251   -0.1261 N   0  0  0  0  0  0  0  0  0  0  0  0
    2.5188    9.5639   -1.0723 C   0  0  0  0  0  0  0  0  0  0  0  0
    1.5659    9.7022   -2.0760 N   0  0  0  0  0  0  0  0  0  0  0  0
    1.5323    9.1494   -3.3490 C   0  0  0  0  0  0  0  0  0  0  0  0
    2.5915    8.4543   -3.8065 N   0  0  0  0  0  0  0  0  0  0  0  0
    2.5136    7.8928   -5.0219 C   0  0  0  0  0  0  0  0  0  0  0  0
    1.4044    7.9946   -5.8131 C   0  0  0  0  0  0  0  0  0  0  0  0
    0.3814    8.7443   -5.2909 C   0  0  0  0  0  0  0  0  0  0  0  0
    0.4256    9.3423   -4.0796 N   0  0  0  0  0  0  0  0  0  0  0  0
    3.3817    8.4716   -1.0219 C   0  0  0  0  0  0  0  0  0  0  0  0
    3.5462    3.1896   -0.8119 C   0  0  0  0  0  0  0  0  0  0  0  0
    2.7713    2.0321   -0.7071 C   0  0  0  0  0  0  0  0  0  0  0  0
    1.8256    1.7623   -1.6621 O   0  0  0  0  0  0  0  0  0  0  0  0
    1.5276   -1.6707    1.3071 H   0  0  0  0  0  0  0  0  0  0  0  0
    2.0592   -0.3936    2.4057 H   0  0  0  0  0  0  0  0  0  0  0  0
    3.2586   -1.3375    1.4383 H   0  0  0  0  0  0  0  0  0  0  0  0
    4.0853    0.7718    2.1681 H   0  0  0  0  0  0  0  0  0  0  0  0
    5.4344    2.7886    1.9915 H   0  0  0  0  0  0  0  0  0  0  0  0
    5.9267    4.6871   -0.8805 H   0  0  0  0  0  0  0  0  0  0  0  0
    6.0709    4.7786    0.8788 H   0  0  0  0  0  0  0  0  0  0  0  0
    3.9523    5.9358    0.9290 H   0  0  0  0  0  0  0  0  0  0  0  0
    5.8497    7.1801   -0.9609 H   0  0  0  0  0  0  0  0  0  0  0  0
    5.9881    7.2364    0.8017 H   0  0  0  0  0  0  0  0  0  0  0  0
    5.1617    9.3494    1.7209 H   0  0  0  0  0  0  0  0  0  0  0  0
    3.5302   11.2205    1.5611 H   0  0  0  0  0  0  0  0  0  0  0  0
    0.9333   10.4717   -1.9548 H   0  0  0  0  0  0  0  0  0  0  0  0
    3.3950    7.3401   -5.3322 H   0  0  0  0  0  0  0  0  0  0  0  0
    1.3456    7.5185   -6.7821 H   0  0  0  0  0  0  0  0  0  0  0  0
   -0.5433    8.8850   -5.8414 H   0  0  0  0  0  0  0  0  0  0  0  0
    3.2975    7.6670   -1.7461 H   0  0  0  0  0  0  0  0  0  0  0  0
    3.4004    3.8808   -1.6382 H   0  0  0  0  0  0  0  0  0  0  0  0
    1.7905    2.5063   -2.2827 H   0  0  0  0  0  0  0  0  0  0  0  0
  1  2  1  0  0  0  0
  1 26  1  0  0  0  0
  1 27  1  0  0  0  0
  1 28  1  0  0  0  0
  2  3  1  0  0  0  0
  3  4  1  0  0  0  0
  3 24  2  0  0  0  0
  4  5  2  0  0  0  0
  4 29  1  0  0  0  0
  5  6  1  0  0  0  0
  5 30  1  0  0  0  0
  6  7  1  0  0  0  0
  6 23  2  0  0  0  0
  7  8  1  0  0  0  0
  7 31  1  0  0  0  0
  7 32  1  0  0  0  0
  8  9  1  0  0  0  0
  8 33  1  0  0  0  0
  9 10  1  0  0  0  0
  9 34  1  0  0  0  0
  9 35  1  0  0  0  0
 10 11  1  0  0  0  0
 10 22  2  0  0  0  0
 11 12  2  0  0  0  0
 11 36  1  0  0  0  0
 12 13  1  0  0  0  0
 12 37  1  0  0  0  0
 13 14  2  0  0  0  0
 14 15  1  0  0  0  0
 14 22  1  0  0  0  0
 15 16  1  0  0  0  0
 15 38  1  0  0  0  0
 16 17  1  0  0  0  0
 16 21  2  0  0  0  0
 17 18  2  0  0  0  0
 18 19  1  0  0  0  0
 18 39  1  0  0  0  0
 19 20  2  0  0  0  0
 19 40  1  0  0  0  0
 20 21  1  0  0  0  0
 20 41  1  0  0  0  0
 22 42  1  0  0  0  0
 23 24  1  0  0  0  0
 23 43  1  0  0  0  0
 24 25  1  0  0  0  0
 25 44  1  0  0  0  0
M  END
$$$$
