
 OpenBabel11072213583D

 64 68  0  0  0  0  0  0  0  0999 V2000
    6.1275    7.9027   -0.1204 C   0  0  0  0  0  0  0  0  0  0  0  0
    6.5717    7.8413    1.2322 O   0  0  0  0  0  0  0  0  0  0  0  0
    6.2565    6.6898    1.9053 C   0  0  0  0  0  0  0  0  0  0  0  0
    6.0790    5.4576    1.2445 C   0  0  0  0  0  0  0  0  0  0  0  0
    5.7025    4.2887    1.9041 C   0  0  0  0  0  0  0  0  0  0  0  0
    5.4952    3.1815    1.1892 N   0  0  0  0  0  0  0  0  0  0  0  0
    5.1147    2.0959    1.8714 C   0  0  0  0  0  0  0  0  0  0  0  0
    4.9069    2.0227    3.1898 N   0  0  0  0  0  0  0  0  0  0  0  0
    5.0903    3.1443    3.9118 C   0  0  0  0  0  0  0  0  0  0  0  0
    4.7579    3.0777    5.2551 N   0  0  0  0  0  0  0  0  0  0  0  0
    4.9045    1.8103    5.9793 C   0  0  0  0  0  0  0  0  0  0  0  0
    3.6579    1.4965    6.8408 C   0  0  0  0  0  0  0  0  0  0  0  0
    3.1707    2.6105    7.6925 N   0  0  0  0  0  0  0  0  0  0  0  0
    4.1280    2.9313    8.7656 C   0  0  0  0  0  0  0  0  0  0  0  0
    3.6270    4.0261    9.7248 C   0  0  0  0  0  0  0  0  0  0  0  0
    2.2337    3.7572   10.2973 C   0  0  0  0  0  0  0  0  0  0  0  0
    2.1973    2.4762   11.1260 C   0  0  0  0  0  0  0  0  0  0  0  0
    0.8823    2.1974   11.6220 N   0  0  0  0  0  0  0  0  0  0  0  0
    0.3690    2.6089   12.8638 C   0  0  0  0  0  0  0  0  0  0  0  0
    0.9430    3.2441   13.7399 O   0  0  0  0  0  0  0  0  0  0  0  0
   -0.9554    2.1546   12.9179 N   0  0  0  0  0  0  0  0  0  0  0  0
   -1.2573    1.4989   11.7286 C   0  0  0  0  0  0  0  0  0  0  0  0
   -2.4331    0.9056   11.3339 C   0  0  0  0  0  0  0  0  0  0  0  0
   -2.4502    0.3282   10.0604 C   0  0  0  0  0  0  0  0  0  0  0  0
   -1.3128    0.3628    9.2260 C   0  0  0  0  0  0  0  0  0  0  0  0
   -0.1279    0.9738    9.6516 C   0  0  0  0  0  0  0  0  0  0  0  0
   -0.1263    1.5294   10.9121 C   0  0  0  0  0  0  0  0  0  0  0  0
    2.9191    3.7589    6.7973 C   0  0  0  0  0  0  0  0  0  0  0  0
    4.1400    4.1960    5.9757 C   0  0  0  0  0  0  0  0  0  0  0  0
    5.5495    4.3281    3.2911 C   0  0  0  0  0  0  0  0  0  0  0  0
    5.8766    5.5308    3.9538 C   0  0  0  0  0  0  0  0  0  0  0  0
    6.1537    6.7240    3.2899 C   0  0  0  0  0  0  0  0  0  0  0  0
    6.2344    7.7563    4.1768 O   0  0  0  0  0  0  0  0  0  0  0  0
    6.4396    9.0833    3.7365 C   0  0  0  0  0  0  0  0  0  0  0  0
    6.1633    8.9484   -0.4386 H   0  0  0  0  0  0  0  0  0  0  0  0
    5.0911    7.5598   -0.2243 H   0  0  0  0  0  0  0  0  0  0  0  0
    6.7968    7.3310   -0.7709 H   0  0  0  0  0  0  0  0  0  0  0  0
    6.2208    5.3780    0.1699 H   0  0  0  0  0  0  0  0  0  0  0  0
    4.9466    1.1911    1.2986 H   0  0  0  0  0  0  0  0  0  0  0  0
    5.7860    1.8903    6.6271 H   0  0  0  0  0  0  0  0  0  0  0  0
    5.0911    0.9539    5.3215 H   0  0  0  0  0  0  0  0  0  0  0  0
    3.8487    0.6131    7.4613 H   0  0  0  0  0  0  0  0  0  0  0  0
    2.8379    1.2109    6.1674 H   0  0  0  0  0  0  0  0  0  0  0  0
    5.1064    3.2373    8.3784 H   0  0  0  0  0  0  0  0  0  0  0  0
    4.3176    2.0229    9.3495 H   0  0  0  0  0  0  0  0  0  0  0  0
    3.6228    4.9984    9.2179 H   0  0  0  0  0  0  0  0  0  0  0  0
    4.3430    4.1252   10.5497 H   0  0  0  0  0  0  0  0  0  0  0  0
    1.4937    3.7079    9.4892 H   0  0  0  0  0  0  0  0  0  0  0  0
    1.9330    4.6082   10.9209 H   0  0  0  0  0  0  0  0  0  0  0  0
    2.8731    2.5863   11.9838 H   0  0  0  0  0  0  0  0  0  0  0  0
    2.5369    1.6059   10.5571 H   0  0  0  0  0  0  0  0  0  0  0  0
   -1.5707    2.3141   13.6989 H   0  0  0  0  0  0  0  0  0  0  0  0
   -3.3067    0.8867   11.9747 H   0  0  0  0  0  0  0  0  0  0  0  0
   -3.3587   -0.1552    9.7027 H   0  0  0  0  0  0  0  0  0  0  0  0
   -1.3587   -0.0900    8.2380 H   0  0  0  0  0  0  0  0  0  0  0  0
    0.7436    1.0069    9.0059 H   0  0  0  0  0  0  0  0  0  0  0  0
    2.5364    4.6206    7.3553 H   0  0  0  0  0  0  0  0  0  0  0  0
    2.1084    3.4914    6.1071 H   0  0  0  0  0  0  0  0  0  0  0  0
    4.8875    4.6386    6.6453 H   0  0  0  0  0  0  0  0  0  0  0  0
    3.7804    4.9801    5.3009 H   0  0  0  0  0  0  0  0  0  0  0  0
    5.9037    5.5696    5.0370 H   0  0  0  0  0  0  0  0  0  0  0  0
    6.1211    9.7408    4.5539 H   0  0  0  0  0  0  0  0  0  0  0  0
    5.8354    9.3555    2.8692 H   0  0  0  0  0  0  0  0  0  0  0  0
    7.5057    9.2532    3.5697 H   0  0  0  0  0  0  0  0  0  0  0  0
  1  2  1  0  0  0  0
  1 35  1  0  0  0  0
  1 36  1  0  0  0  0
  1 37  1  0  0  0  0
  2  3  1  0  0  0  0
  3  4  1  0  0  0  0
  3 32  2  0  0  0  0
  4  5  2  0  0  0  0
  4 38  1  0  0  0  0
  5  6  1  0  0  0  0
  5 30  1  0  0  0  0
  6  7  2  0  0  0  0
  7  8  1  0  0  0  0
  7 39  1  0  0  0  0
  8  9  2  0  0  0  0
  9 10  1  0  0  0  0
  9 30  1  0  0  0  0
 10 11  1  0  0  0  0
 10 29  1  0  0  0  0
 11 12  1  0  0  0  0
 11 40  1  0  0  0  0
 11 41  1  0  0  0  0
 12 13  1  0  0  0  0
 12 42  1  0  0  0  0
 12 43  1  0  0  0  0
 13 14  1  0  0  0  0
 13 28  1  0  0  0  0
 14 15  1  0  0  0  0
 14 44  1  0  0  0  0
 14 45  1  0  0  0  0
 15 16  1  0  0  0  0
 15 46  1  0  0  0  0
 15 47  1  0  0  0  0
 16 17  1  0  0  0  0
 16 48  1  0  0  0  0
 16 49  1  0  0  0  0
 17 18  1  0  0  0  0
 17 50  1  0  0  0  0
 17 51  1  0  0  0  0
 18 19  1  0  0  0  0
 18 27  1  0  0  0  0
 19 20  2  0  0  0  0
 19 21  1  0  0  0  0
 21 22  1  0  0  0  0
 21 52  1  0  0  0  0
 22 23  1  0  0  0  0
 22 27  2  0  0  0  0
 23 24  2  0  0  0  0
 23 53  1  0  0  0  0
 24 25  1  0  0  0  0
 24 54  1  0  0  0  0
 25 26  2  0  0  0  0
 25 55  1  0  0  0  0
 26 27  1  0  0  0  0
 26 56  1  0  0  0  0
 28 29  1  0  0  0  0
 28 57  1  0  0  0  0
 28 58  1  0  0  0  0
 29 59  1  0  0  0  0
 29 60  1  0  0  0  0
 30 31  2  0  0  0  0
 31 32  1  0  0  0  0
 31 61  1  0  0  0  0
 32 33  1  0  0  0  0
 33 34  1  0  0  0  0
 34 62  1  0  0  0  0
 34 63  1  0  0  0  0
 34 64  1  0  0  0  0
M  END
$$$$
