
 OpenBabel11072213583D

 40 42  0  0  0  0  0  0  0  0999 V2000
    3.4352   -0.5650    1.1355 C   0  0  0  0  0  0  0  0  0  0  0  0
    2.5795    0.1448    0.2370 O   0  0  0  0  0  0  0  0  0  0  0  0
    3.2335    0.8033   -0.7673 C   0  0  0  0  0  0  0  0  0  0  0  0
    4.2983    0.1962   -1.4578 C   0  0  0  0  0  0  0  0  0  0  0  0
    5.0531    0.8655   -2.4170 C   0  0  0  0  0  0  0  0  0  0  0  0
    6.1076    0.2428   -2.9469 N   0  0  0  0  0  0  0  0  0  0  0  0
    6.8418    0.9496   -3.8099 C   0  0  0  0  0  0  0  0  0  0  0  0
    6.6024    2.1984   -4.2222 N   0  0  0  0  0  0  0  0  0  0  0  0
    5.5205    2.8184   -3.7196 C   0  0  0  0  0  0  0  0  0  0  0  0
    5.2584    4.0937   -4.1970 N   0  0  0  0  0  0  0  0  0  0  0  0
    6.3875    4.9678   -4.5055 C   0  0  0  0  0  0  0  0  0  0  0  0
    6.3082    5.4698   -5.9432 C   0  0  0  0  0  0  0  0  0  0  0  0
    4.9406    6.0628   -6.2694 C   0  0  0  0  0  0  0  0  0  0  0  0
    4.7464    7.3063   -5.5931 O   0  0  0  0  0  0  0  0  0  0  0  0
    3.8210    5.0865   -5.9378 C   0  0  0  0  0  0  0  0  0  0  0  0
    3.9139    4.5664   -4.5116 C   0  0  0  0  0  0  0  0  0  0  0  0
    4.7037    2.1761   -2.7533 C   0  0  0  0  0  0  0  0  0  0  0  0
    3.6107    2.7636   -2.0718 C   0  0  0  0  0  0  0  0  0  0  0  0
    2.8464    2.0892   -1.1216 C   0  0  0  0  0  0  0  0  0  0  0  0
    1.8233    2.8676   -0.6679 O   0  0  0  0  0  0  0  0  0  0  0  0
    0.9156    2.3496    0.2853 C   0  0  0  0  0  0  0  0  0  0  0  0
    3.1302   -0.3230    2.1572 H   0  0  0  0  0  0  0  0  0  0  0  0
    4.4976   -0.3033    1.0475 H   0  0  0  0  0  0  0  0  0  0  0  0
    3.3055   -1.6394    0.9770 H   0  0  0  0  0  0  0  0  0  0  0  0
    4.5815   -0.8270   -1.2291 H   0  0  0  0  0  0  0  0  0  0  0  0
    7.7204    0.4614   -4.2204 H   0  0  0  0  0  0  0  0  0  0  0  0
    7.3628    4.4925   -4.3449 H   0  0  0  0  0  0  0  0  0  0  0  0
    6.3603    5.8185   -3.8131 H   0  0  0  0  0  0  0  0  0  0  0  0
    6.5072    4.6339   -6.6249 H   0  0  0  0  0  0  0  0  0  0  0  0
    7.0889    6.2226   -6.1002 H   0  0  0  0  0  0  0  0  0  0  0  0
    4.8971    6.2917   -7.3391 H   0  0  0  0  0  0  0  0  0  0  0  0
    4.7758    7.1543   -4.6332 H   0  0  0  0  0  0  0  0  0  0  0  0
    3.8669    4.2347   -6.6272 H   0  0  0  0  0  0  0  0  0  0  0  0
    2.8441    5.5671   -6.0689 H   0  0  0  0  0  0  0  0  0  0  0  0
    3.1602    3.7766   -4.4240 H   0  0  0  0  0  0  0  0  0  0  0  0
    3.6457    5.3649   -3.8087 H   0  0  0  0  0  0  0  0  0  0  0  0
    3.3464    3.7997   -2.2485 H   0  0  0  0  0  0  0  0  0  0  0  0
    0.1692    3.1304    0.4688 H   0  0  0  0  0  0  0  0  0  0  0  0
    1.4196    2.1529    1.2345 H   0  0  0  0  0  0  0  0  0  0  0  0
    0.3840    1.4722   -0.0940 H   0  0  0  0  0  0  0  0  0  0  0  0
  1  2  1  0  0  0  0
  1 22  1  0  0  0  0
  1 23  1  0  0  0  0
  1 24  1  0  0  0  0
  2  3  1  0  0  0  0
  3  4  1  0  0  0  0
  3 19  2  0  0  0  0
  4  5  2  0  0  0  0
  4 25  1  0  0  0  0
  5  6  1  0  0  0  0
  5 17  1  0  0  0  0
  6  7  2  0  0  0  0
  7  8  1  0  0  0  0
  7 26  1  0  0  0  0
  8  9  2  0  0  0  0
  9 10  1  0  0  0  0
  9 17  1  0  0  0  0
 10 11  1  0  0  0  0
 10 16  1  0  0  0  0
 11 12  1  0  0  0  0
 11 27  1  0  0  0  0
 11 28  1  0  0  0  0
 12 13  1  0  0  0  0
 12 29  1  0  0  0  0
 12 30  1  0  0  0  0
 13 14  1  0  0  0  0
 13 15  1  0  0  0  0
 13 31  1  0  0  0  0
 14 32  1  0  0  0  0
 15 16  1  0  0  0  0
 15 33  1  0  0  0  0
 15 34  1  0  0  0  0
 16 35  1  0  0  0  0
 16 36  1  0  0  0  0
 17 18  2  0  0  0  0
 18 19  1  0  0  0  0
 18 37  1  0  0  0  0
 19 20  1  0  0  0  0
 20 21  1  0  0  0  0
 21 38  1  0  0  0  0
 21 39  1  0  0  0  0
 21 40  1  0  0  0  0
M  END
$$$$
