
 OpenBabel11072213583D

 54 57  0  0  0  0  0  0  0  0999 V2000
    2.7087    1.1983    0.4339 C   0  0  0  0  0  0  0  0  0  0  0  0
    2.4159   -0.1373    0.0218 O   0  0  0  0  0  0  0  0  0  0  0  0
    3.0382   -1.0739    0.8172 C   0  0  0  0  0  0  0  0  0  0  0  0
    2.8926   -2.4154    0.4949 C   0  0  0  0  0  0  0  0  0  0  0  0
    3.5050   -3.4144    1.1859 N   0  0  0  0  0  0  0  0  0  0  0  0
    4.2632   -3.0355    2.2377 C   0  0  0  0  0  0  0  0  0  0  0  0
    4.9495   -3.9773    2.9849 N   0  0  0  0  0  0  0  0  0  0  0  0
    5.3488   -5.2356    2.3435 C   0  0  0  0  0  0  0  0  0  0  0  0
    4.6983   -6.4746    2.9919 C   0  0  0  0  0  0  0  0  0  0  0  0
    4.7540   -6.5056    4.4750 N   0  0  0  0  0  0  0  0  0  0  0  0
    6.1430   -6.6146    4.9568 C   0  0  0  0  0  0  0  0  0  0  0  0
    6.2445   -6.8152    6.4777 C   0  0  0  0  0  0  0  0  0  0  0  0
    5.4796   -8.0358    6.9991 C   0  0  0  0  0  0  0  0  0  0  0  0
    6.0252   -9.3383    6.4183 C   0  0  0  0  0  0  0  0  0  0  0  0
    5.2959  -10.4906    6.8692 N   0  0  0  0  0  0  0  0  0  0  0  0
    5.5468  -11.2002    8.0575 C   0  0  0  0  0  0  0  0  0  0  0  0
    6.3876  -10.9624    8.9084 O   0  0  0  0  0  0  0  0  0  0  0  0
    4.6378  -12.2692    8.0785 N   0  0  0  0  0  0  0  0  0  0  0  0
    3.8516  -12.2182    6.9338 C   0  0  0  0  0  0  0  0  0  0  0  0
    2.8515  -13.0706    6.5251 C   0  0  0  0  0  0  0  0  0  0  0  0
    2.2344  -12.7787    5.3035 C   0  0  0  0  0  0  0  0  0  0  0  0
    2.6243  -11.6553    4.5421 C   0  0  0  0  0  0  0  0  0  0  0  0
    3.6410  -10.8008    4.9821 C   0  0  0  0  0  0  0  0  0  0  0  0
    4.2447  -11.1113    6.1821 C   0  0  0  0  0  0  0  0  0  0  0  0
    4.0934   -5.2671    4.9480 C   0  0  0  0  0  0  0  0  0  0  0  0
    4.7422   -3.9614    4.4400 C   0  0  0  0  0  0  0  0  0  0  0  0
    4.3828   -1.6728    2.5463 C   0  0  0  0  0  0  0  0  0  0  0  0
    3.7833   -0.6709    1.8631 N   0  0  0  0  0  0  0  0  0  0  0  0
    2.2770    1.8804   -0.3052 H   0  0  0  0  0  0  0  0  0  0  0  0
    3.7878    1.3880    0.4626 H   0  0  0  0  0  0  0  0  0  0  0  0
    2.2473    1.4133    1.4030 H   0  0  0  0  0  0  0  0  0  0  0  0
    2.2784   -2.7274   -0.3416 H   0  0  0  0  0  0  0  0  0  0  0  0
    6.4387   -5.3180    2.4356 H   0  0  0  0  0  0  0  0  0  0  0  0
    5.1495   -5.2466    1.2650 H   0  0  0  0  0  0  0  0  0  0  0  0
    5.1558   -7.3855    2.5859 H   0  0  0  0  0  0  0  0  0  0  0  0
    3.6436   -6.5189    2.6882 H   0  0  0  0  0  0  0  0  0  0  0  0
    6.7492   -5.7427    4.6867 H   0  0  0  0  0  0  0  0  0  0  0  0
    6.6283   -7.4626    4.4597 H   0  0  0  0  0  0  0  0  0  0  0  0
    5.8911   -5.9204    7.0016 H   0  0  0  0  0  0  0  0  0  0  0  0
    7.3040   -6.9154    6.7447 H   0  0  0  0  0  0  0  0  0  0  0  0
    4.4091   -7.9377    6.7805 H   0  0  0  0  0  0  0  0  0  0  0  0
    5.5622   -8.0607    8.0931 H   0  0  0  0  0  0  0  0  0  0  0  0
    7.0699   -9.4560    6.7306 H   0  0  0  0  0  0  0  0  0  0  0  0
    6.0161   -9.3316    5.3253 H   0  0  0  0  0  0  0  0  0  0  0  0
    4.6019  -12.9549    8.8149 H   0  0  0  0  0  0  0  0  0  0  0  0
    2.5575  -13.9314    7.1126 H   0  0  0  0  0  0  0  0  0  0  0  0
    1.4432  -13.4252    4.9334 H   0  0  0  0  0  0  0  0  0  0  0  0
    2.1259  -11.4527    3.5960 H   0  0  0  0  0  0  0  0  0  0  0  0
    3.9325   -9.9370    4.3966 H   0  0  0  0  0  0  0  0  0  0  0  0
    4.0395   -5.2500    6.0419 H   0  0  0  0  0  0  0  0  0  0  0  0
    3.0452   -5.2923    4.6185 H   0  0  0  0  0  0  0  0  0  0  0  0
    5.7118   -3.8056    4.9262 H   0  0  0  0  0  0  0  0  0  0  0  0
    4.1041   -3.1286    4.7613 H   0  0  0  0  0  0  0  0  0  0  0  0
    5.0219   -1.3476    3.3604 H   0  0  0  0  0  0  0  0  0  0  0  0
  1  2  1  0  0  0  0
  1 29  1  0  0  0  0
  1 30  1  0  0  0  0
  1 31  1  0  0  0  0
  2  3  1  0  0  0  0
  3  4  1  0  0  0  0
  3 28  2  0  0  0  0
  4  5  2  0  0  0  0
  4 32  1  0  0  0  0
  5  6  1  0  0  0  0
  6  7  1  0  0  0  0
  6 27  2  0  0  0  0
  7  8  1  0  0  0  0
  7 26  1  0  0  0  0
  8  9  1  0  0  0  0
  8 33  1  0  0  0  0
  8 34  1  0  0  0  0
  9 10  1  0  0  0  0
  9 35  1  0  0  0  0
  9 36  1  0  0  0  0
 10 11  1  0  0  0  0
 10 25  1  0  0  0  0
 11 12  1  0  0  0  0
 11 37  1  0  0  0  0
 11 38  1  0  0  0  0
 12 13  1  0  0  0  0
 12 39  1  0  0  0  0
 12 40  1  0  0  0  0
 13 14  1  0  0  0  0
 13 41  1  0  0  0  0
 13 42  1  0  0  0  0
 14 15  1  0  0  0  0
 14 43  1  0  0  0  0
 14 44  1  0  0  0  0
 15 16  1  0  0  0  0
 15 24  1  0  0  0  0
 16 17  2  0  0  0  0
 16 18  1  0  0  0  0
 18 19  1  0  0  0  0
 18 45  1  0  0  0  0
 19 20  1  0  0  0  0
 19 24  2  0  0  0  0
 20 21  2  0  0  0  0
 20 46  1  0  0  0  0
 21 22  1  0  0  0  0
 21 47  1  0  0  0  0
 22 23  2  0  0  0  0
 22 48  1  0  0  0  0
 23 24  1  0  0  0  0
 23 49  1  0  0  0  0
 25 26  1  0  0  0  0
 25 50  1  0  0  0  0
 25 51  1  0  0  0  0
 26 52  1  0  0  0  0
 26 53  1  0  0  0  0
 27 28  1  0  0  0  0
 27 54  1  0  0  0  0
M  END
$$$$
