
 OpenBabel11072213583D

 59 62  0  0  0  0  0  0  0  0999 V2000
    3.3772    1.7924   -0.5484 O   0  0  0  0  0  0  0  0  0  0  0  0
    3.2370    0.9866   -1.4668 C   0  0  0  0  0  0  0  0  0  0  0  0
    3.0127   -0.4977   -1.1616 C   0  0  0  0  0  0  0  0  0  0  0  0
    1.9438   -1.1072   -1.9920 N   0  0  0  0  0  0  0  0  0  0  0  0
    0.6262   -0.4575   -1.7668 C   0  0  0  0  0  0  0  0  0  0  0  0
   -0.0424   -0.7625   -0.4035 C   0  0  0  0  0  0  0  0  0  0  0  0
   -0.1933   -2.2060   -0.1182 N   0  0  0  0  0  0  0  0  0  0  0  0
   -1.2664   -2.7978   -0.9465 C   0  0  0  0  0  0  0  0  0  0  0  0
   -1.5679   -4.2586   -0.5849 C   0  0  0  0  0  0  0  0  0  0  0  0
   -2.6485   -4.7597   -1.3792 O   0  0  0  0  0  0  0  0  0  0  0  0
   -2.9301   -6.0915   -1.1974 C   0  0  0  0  0  0  0  0  0  0  0  0
   -2.2936   -6.9381   -0.2919 C   0  0  0  0  0  0  0  0  0  0  0  0
   -2.6933   -8.2626   -0.2323 C   0  0  0  0  0  0  0  0  0  0  0  0
   -3.6690   -8.7869   -0.9999 N   0  0  0  0  0  0  0  0  0  0  0  0
   -4.2725   -7.9446   -1.8668 C   0  0  0  0  0  0  0  0  0  0  0  0
   -3.9415   -6.6065   -2.0011 C   0  0  0  0  0  0  0  0  0  0  0  0
    1.1225   -2.8536   -0.2984 C   0  0  0  0  0  0  0  0  0  0  0  0
    1.8193   -2.5490   -1.6510 C   0  0  0  0  0  0  0  0  0  0  0  0
    3.3160    1.2862   -2.8155 N   0  0  0  0  0  0  0  0  0  0  0  0
    3.4911    2.5702   -3.3018 C   0  0  0  0  0  0  0  0  0  0  0  0
    3.5526    3.8106   -2.6254 C   0  0  0  0  0  0  0  0  0  0  0  0
    3.7024    4.8449   -3.4578 N   0  0  0  0  0  0  0  0  0  0  0  0
    3.7851    4.2650   -4.6723 N   0  0  0  0  0  0  0  0  0  0  0  0
    3.8900    5.1010   -5.8612 C   0  0  0  0  0  0  0  0  0  0  0  0
    5.3211    5.4209   -6.2156 C   0  0  0  0  0  0  0  0  0  0  0  0
    6.0329    4.6209   -7.1216 C   0  0  0  0  0  0  0  0  0  0  0  0
    7.3520    4.9319   -7.4570 C   0  0  0  0  0  0  0  0  0  0  0  0
    7.9738    6.0419   -6.8894 C   0  0  0  0  0  0  0  0  0  0  0  0
    7.2816    6.8399   -5.9806 C   0  0  0  0  0  0  0  0  0  0  0  0
    5.9637    6.5302   -5.6431 C   0  0  0  0  0  0  0  0  0  0  0  0
    3.6365    2.9010   -4.6299 C   0  0  0  0  0  0  0  0  0  0  0  0
    2.8041   -0.5891   -0.0904 H   0  0  0  0  0  0  0  0  0  0  0  0
    3.9663   -1.0035   -1.3588 H   0  0  0  0  0  0  0  0  0  0  0  0
   -0.0430   -0.7888   -2.5712 H   0  0  0  0  0  0  0  0  0  0  0  0
    0.6969    0.6276   -1.8979 H   0  0  0  0  0  0  0  0  0  0  0  0
   -1.0157   -0.2609   -0.3462 H   0  0  0  0  0  0  0  0  0  0  0  0
    0.5573   -0.3170    0.4009 H   0  0  0  0  0  0  0  0  0  0  0  0
   -1.0519   -2.7316   -2.0194 H   0  0  0  0  0  0  0  0  0  0  0  0
   -2.1931   -2.2271   -0.7958 H   0  0  0  0  0  0  0  0  0  0  0  0
   -1.8369   -4.3156    0.4769 H   0  0  0  0  0  0  0  0  0  0  0  0
   -0.6814   -4.8662   -0.7899 H   0  0  0  0  0  0  0  0  0  0  0  0
   -1.5010   -6.6110    0.3683 H   0  0  0  0  0  0  0  0  0  0  0  0
   -2.2202   -8.9543    0.4590 H   0  0  0  0  0  0  0  0  0  0  0  0
   -5.0560   -8.3913   -2.4711 H   0  0  0  0  0  0  0  0  0  0  0  0
   -4.4613   -5.9812   -2.7177 H   0  0  0  0  0  0  0  0  0  0  0  0
    1.0575   -3.9369   -0.1560 H   0  0  0  0  0  0  0  0  0  0  0  0
    1.7709   -2.5203    0.5223 H   0  0  0  0  0  0  0  0  0  0  0  0
    1.2593   -3.0417   -2.4557 H   0  0  0  0  0  0  0  0  0  0  0  0
    2.8092   -3.0230   -1.6567 H   0  0  0  0  0  0  0  0  0  0  0  0
    3.1824    0.5270   -3.4742 H   0  0  0  0  0  0  0  0  0  0  0  0
    3.4711    4.0068   -1.5645 H   0  0  0  0  0  0  0  0  0  0  0  0
    3.3201    6.0199   -5.6741 H   0  0  0  0  0  0  0  0  0  0  0  0
    3.3892    4.5781   -6.6841 H   0  0  0  0  0  0  0  0  0  0  0  0
    5.5662    3.7497   -7.5775 H   0  0  0  0  0  0  0  0  0  0  0  0
    7.8971    4.3085   -8.1608 H   0  0  0  0  0  0  0  0  0  0  0  0
    8.9993    6.2828   -7.1482 H   0  0  0  0  0  0  0  0  0  0  0  0
    7.7681    7.7040   -5.5336 H   0  0  0  0  0  0  0  0  0  0  0  0
    5.4387    7.1569   -4.9233 H   0  0  0  0  0  0  0  0  0  0  0  0
    3.6596    2.3065   -5.5315 H   0  0  0  0  0  0  0  0  0  0  0  0
  1  2  2  0  0  0  0
  2  3  1  0  0  0  0
  2 19  1  0  0  0  0
  3  4  1  0  0  0  0
  3 32  1  0  0  0  0
  3 33  1  0  0  0  0
  4  5  1  0  0  0  0
  4 18  1  0  0  0  0
  5  6  1  0  0  0  0
  5 34  1  0  0  0  0
  5 35  1  0  0  0  0
  6  7  1  0  0  0  0
  6 36  1  0  0  0  0
  6 37  1  0  0  0  0
  7  8  1  0  0  0  0
  7 17  1  0  0  0  0
  8  9  1  0  0  0  0
  8 38  1  0  0  0  0
  8 39  1  0  0  0  0
  9 10  1  0  0  0  0
  9 40  1  0  0  0  0
  9 41  1  0  0  0  0
 10 11  1  0  0  0  0
 11 12  1  0  0  0  0
 11 16  2  0  0  0  0
 12 13  2  0  0  0  0
 12 42  1  0  0  0  0
 13 14  1  0  0  0  0
 13 43  1  0  0  0  0
 14 15  2  0  0  0  0
 15 16  1  0  0  0  0
 15 44  1  0  0  0  0
 16 45  1  0  0  0  0
 17 18  1  0  0  0  0
 17 46  1  0  0  0  0
 17 47  1  0  0  0  0
 18 48  1  0  0  0  0
 18 49  1  0  0  0  0
 19 20  1  0  0  0  0
 19 50  1  0  0  0  0
 20 21  1  0  0  0  0
 20 31  2  0  0  0  0
 21 22  2  0  0  0  0
 21 51  1  0  0  0  0
 22 23  1  0  0  0  0
 23 24  1  0  0  0  0
 23 31  1  0  0  0  0
 24 25  1  0  0  0  0
 24 52  1  0  0  0  0
 24 53  1  0  0  0  0
 25 26  1  0  0  0  0
 25 30  2  0  0  0  0
 26 27  2  0  0  0  0
 26 54  1  0  0  0  0
 27 28  1  0  0  0  0
 27 55  1  0  0  0  0
 28 29  2  0  0  0  0
 28 56  1  0  0  0  0
 29 30  1  0  0  0  0
 29 57  1  0  0  0  0
 30 58  1  0  0  0  0
 31 59  1  0  0  0  0
M  END
$$$$
