
 OpenBabel11072213583D

 61 63  0  0  0  0  0  0  0  0999 V2000
    1.7382    0.2817   -4.8626 C   0  0  0  0  0  0  0  0  0  0  0  0
    2.3961   -0.1481   -3.6798 O   0  0  0  0  0  0  0  0  0  0  0  0
    2.8173    0.8118   -2.7900 C   0  0  0  0  0  0  0  0  0  0  0  0
    2.2440    2.0937   -2.7456 C   0  0  0  0  0  0  0  0  0  0  0  0
    2.6832    3.0444   -1.8256 C   0  0  0  0  0  0  0  0  0  0  0  0
    3.7042    2.7302   -0.9444 C   0  0  0  0  0  0  0  0  0  0  0  0
    4.2699    1.4543   -0.9722 C   0  0  0  0  0  0  0  0  0  0  0  0
    3.8443    0.4578   -1.8744 C   0  0  0  0  0  0  0  0  0  0  0  0
    4.4055   -0.8117   -1.7501 N   0  0  0  0  0  0  0  0  0  0  0  0
    3.6878   -2.0086   -2.2104 C   0  0  0  0  0  0  0  0  0  0  0  0
    4.1268   -3.2261   -1.3659 C   0  0  0  0  0  0  0  0  0  0  0  0
    5.5866   -3.4810   -1.3406 N   0  0  0  0  0  0  0  0  0  0  0  0
    6.1179   -3.9087   -2.6408 C   0  0  0  0  0  0  0  0  0  0  0  0
    5.4892   -5.1986   -3.1815 C   0  0  0  0  0  0  0  0  0  0  0  0
    6.1751   -5.5629   -4.4923 C   0  0  0  0  0  0  0  0  0  0  0  0
    5.6444   -6.8165   -5.0321 N   0  0  0  0  0  0  0  0  0  0  0  0
    6.3106   -7.1678   -6.2966 C   0  0  0  0  0  0  0  0  0  0  0  0
    7.8187   -7.4393   -6.1248 C   0  0  0  0  0  0  0  0  0  0  0  0
    8.5046   -7.7922   -7.3592 N   0  0  0  0  0  0  0  0  0  0  0  0
    8.5213   -9.1981   -7.7332 C   0  0  0  0  0  0  0  0  0  0  0  0
    9.5958   -9.5127   -8.7565 C   0  0  0  0  0  0  0  0  0  0  0  0
    9.4339   -8.5750   -9.9386 C   0  0  0  0  0  0  0  0  0  0  0  0
    9.6047   -7.1381   -9.4813 C   0  0  0  0  0  0  0  0  0  0  0  0
    8.7955   -6.7702   -8.2533 C   0  0  0  0  0  0  0  0  0  0  0  0
    8.5180   -5.5895   -8.0326 O   0  0  0  0  0  0  0  0  0  0  0  0
    6.2560   -2.2253   -0.9062 C   0  0  0  0  0  0  0  0  0  0  0  0
    5.8723   -0.9565   -1.7143 C   0  0  0  0  0  0  0  0  0  0  0  0
    1.5363   -0.6080   -5.4678 H   0  0  0  0  0  0  0  0  0  0  0  0
    2.3798    0.9471   -5.4477 H   0  0  0  0  0  0  0  0  0  0  0  0
    0.7714    0.7457   -4.6449 H   0  0  0  0  0  0  0  0  0  0  0  0
    1.4271    2.3742   -3.4006 H   0  0  0  0  0  0  0  0  0  0  0  0
    2.2162    4.0241   -1.7868 H   0  0  0  0  0  0  0  0  0  0  0  0
    4.0448    3.4561   -0.2130 H   0  0  0  0  0  0  0  0  0  0  0  0
    5.0229    1.2204   -0.2240 H   0  0  0  0  0  0  0  0  0  0  0  0
    3.8827   -2.1899   -3.2747 H   0  0  0  0  0  0  0  0  0  0  0  0
    2.6070   -1.9051   -2.0639 H   0  0  0  0  0  0  0  0  0  0  0  0
    3.5746   -4.1161   -1.6840 H   0  0  0  0  0  0  0  0  0  0  0  0
    3.8036   -3.0565   -0.3302 H   0  0  0  0  0  0  0  0  0  0  0  0
    7.1954   -4.0861   -2.5198 H   0  0  0  0  0  0  0  0  0  0  0  0
    6.0184   -3.1260   -3.4016 H   0  0  0  0  0  0  0  0  0  0  0  0
    4.4179   -5.0717   -3.3685 H   0  0  0  0  0  0  0  0  0  0  0  0
    5.6108   -6.0077   -2.4507 H   0  0  0  0  0  0  0  0  0  0  0  0
    7.2441   -5.6516   -4.2804 H   0  0  0  0  0  0  0  0  0  0  0  0
    6.0383   -4.7516   -5.2194 H   0  0  0  0  0  0  0  0  0  0  0  0
    4.6443   -6.7042   -5.2092 H   0  0  0  0  0  0  0  0  0  0  0  0
    6.1325   -6.3847   -7.0436 H   0  0  0  0  0  0  0  0  0  0  0  0
    5.8300   -8.0732   -6.6860 H   0  0  0  0  0  0  0  0  0  0  0  0
    7.9816   -8.2325   -5.3864 H   0  0  0  0  0  0  0  0  0  0  0  0
    8.3258   -6.5467   -5.7455 H   0  0  0  0  0  0  0  0  0  0  0  0
    7.5283   -9.4499   -8.1225 H   0  0  0  0  0  0  0  0  0  0  0  0
    8.6962   -9.7978   -6.8329 H   0  0  0  0  0  0  0  0  0  0  0  0
    9.5137  -10.5561   -9.0779 H   0  0  0  0  0  0  0  0  0  0  0  0
   10.5888   -9.3820   -8.3086 H   0  0  0  0  0  0  0  0  0  0  0  0
    8.4401   -8.7073  -10.3838 H   0  0  0  0  0  0  0  0  0  0  0  0
   10.1724   -8.8099  -10.7123 H   0  0  0  0  0  0  0  0  0  0  0  0
    9.3160   -6.4639  -10.2967 H   0  0  0  0  0  0  0  0  0  0  0  0
   10.6578   -6.9415   -9.2436 H   0  0  0  0  0  0  0  0  0  0  0  0
    7.3453   -2.3563   -0.9189 H   0  0  0  0  0  0  0  0  0  0  0  0
    5.9919   -2.0547    0.1459 H   0  0  0  0  0  0  0  0  0  0  0  0
    6.2582   -1.0217   -2.7392 H   0  0  0  0  0  0  0  0  0  0  0  0
    6.3756   -0.1010   -1.2528 H   0  0  0  0  0  0  0  0  0  0  0  0
  1  2  1  0  0  0  0
  1 28  1  0  0  0  0
  1 29  1  0  0  0  0
  1 30  1  0  0  0  0
  2  3  1  0  0  0  0
  3  4  1  0  0  0  0
  3  8  2  0  0  0  0
  4  5  2  0  0  0  0
  4 31  1  0  0  0  0
  5  6  1  0  0  0  0
  5 32  1  0  0  0  0
  6  7  2  0  0  0  0
  6 33  1  0  0  0  0
  7  8  1  0  0  0  0
  7 34  1  0  0  0  0
  8  9  1  0  0  0  0
  9 10  1  0  0  0  0
  9 27  1  0  0  0  0
 10 11  1  0  0  0  0
 10 35  1  0  0  0  0
 10 36  1  0  0  0  0
 11 12  1  0  0  0  0
 11 37  1  0  0  0  0
 11 38  1  0  0  0  0
 12 13  1  0  0  0  0
 12 26  1  0  0  0  0
 13 14  1  0  0  0  0
 13 39  1  0  0  0  0
 13 40  1  0  0  0  0
 14 15  1  0  0  0  0
 14 41  1  0  0  0  0
 14 42  1  0  0  0  0
 15 16  1  0  0  0  0
 15 43  1  0  0  0  0
 15 44  1  0  0  0  0
 16 17  1  0  0  0  0
 16 45  1  0  0  0  0
 17 18  1  0  0  0  0
 17 46  1  0  0  0  0
 17 47  1  0  0  0  0
 18 19  1  0  0  0  0
 18 48  1  0  0  0  0
 18 49  1  0  0  0  0
 19 20  1  0  0  0  0
 19 24  1  0  0  0  0
 20 21  1  0  0  0  0
 20 50  1  0  0  0  0
 20 51  1  0  0  0  0
 21 22  1  0  0  0  0
 21 52  1  0  0  0  0
 21 53  1  0  0  0  0
 22 23  1  0  0  0  0
 22 54  1  0  0  0  0
 22 55  1  0  0  0  0
 23 24  1  0  0  0  0
 23 56  1  0  0  0  0
 23 57  1  0  0  0  0
 24 25  2  0  0  0  0
 26 27  1  0  0  0  0
 26 58  1  0  0  0  0
 26 59  1  0  0  0  0
 27 60  1  0  0  0  0
 27 61  1  0  0  0  0
M  END
$$$$
