
 OpenBabel11072213583D

 57 59  0  0  0  0  0  0  0  0999 V2000
    7.7246   -0.2438    3.5703 C   0  0  0  0  0  0  0  0  0  0  0  0
    8.0057   -1.5777    3.9718 O   0  0  0  0  0  0  0  0  0  0  0  0
    6.9567   -2.3809    4.3364 C   0  0  0  0  0  0  0  0  0  0  0  0
    5.6191   -1.9877    4.1921 C   0  0  0  0  0  0  0  0  0  0  0  0
    4.5532   -2.8538    4.4829 C   0  0  0  0  0  0  0  0  0  0  0  0
    3.1359   -2.3400    4.2915 C   0  0  0  0  0  0  0  0  0  0  0  0
    2.1158   -3.3445    3.9349 N   0  0  0  0  0  0  0  0  0  0  0  0
    2.3409   -3.9772    2.6201 C   0  0  0  0  0  0  0  0  0  0  0  0
    2.2069   -3.0376    1.4011 C   0  0  0  0  0  0  0  0  0  0  0  0
    0.9876   -2.2152    1.3462 N   0  0  0  0  0  0  0  0  0  0  0  0
   -0.0232   -2.7554    0.4220 C   0  0  0  0  0  0  0  0  0  0  0  0
   -1.2591   -1.8558    0.2419 C   0  0  0  0  0  0  0  0  0  0  0  0
   -2.0758   -2.3106   -0.8463 O   0  0  0  0  0  0  0  0  0  0  0  0
   -3.2808   -1.6255   -0.8745 C   0  0  0  0  0  0  0  0  0  0  0  0
   -3.9835   -1.6236   -2.0698 C   0  0  0  0  0  0  0  0  0  0  0  0
   -5.1956   -0.9365   -2.1199 C   0  0  0  0  0  0  0  0  0  0  0  0
   -5.6708   -0.3076   -0.9744 C   0  0  0  0  0  0  0  0  0  0  0  0
   -4.9136   -0.3897    0.1802 C   0  0  0  0  0  0  0  0  0  0  0  0
   -3.7317   -1.0336    0.2522 N   0  0  0  0  0  0  0  0  0  0  0  0
    0.5117   -1.7878    2.6725 C   0  0  0  0  0  0  0  0  0  0  0  0
    0.7796   -2.7155    3.8859 C   0  0  0  0  0  0  0  0  0  0  0  0
    4.8466   -4.1235    4.9930 C   0  0  0  0  0  0  0  0  0  0  0  0
    6.1759   -4.5484    5.1414 C   0  0  0  0  0  0  0  0  0  0  0  0
    6.5371   -5.7964    5.5944 O   0  0  0  0  0  0  0  0  0  0  0  0
    5.5015   -6.7468    5.8019 C   0  0  0  0  0  0  0  0  0  0  0  0
    7.2411   -3.6703    4.8256 C   0  0  0  0  0  0  0  0  0  0  0  0
    8.5034   -4.2047    4.9768 O   0  0  0  0  0  0  0  0  0  0  0  0
    9.5574   -3.3137    5.3196 C   0  0  0  0  0  0  0  0  0  0  0  0
    8.6709    0.2293    3.2923 H   0  0  0  0  0  0  0  0  0  0  0  0
    7.2938    0.3269    4.3995 H   0  0  0  0  0  0  0  0  0  0  0  0
    7.0763   -0.2180    2.6883 H   0  0  0  0  0  0  0  0  0  0  0  0
    5.3703   -0.9944    3.8323 H   0  0  0  0  0  0  0  0  0  0  0  0
    3.1543   -1.5332    3.5484 H   0  0  0  0  0  0  0  0  0  0  0  0
    2.8588   -1.8751    5.2473 H   0  0  0  0  0  0  0  0  0  0  0  0
    1.6094   -4.7905    2.5140 H   0  0  0  0  0  0  0  0  0  0  0  0
    3.3179   -4.4709    2.5907 H   0  0  0  0  0  0  0  0  0  0  0  0
    2.3155   -3.6388    0.4890 H   0  0  0  0  0  0  0  0  0  0  0  0
    3.0632   -2.3529    1.3926 H   0  0  0  0  0  0  0  0  0  0  0  0
   -0.3455   -3.7586    0.7261 H   0  0  0  0  0  0  0  0  0  0  0  0
    0.4350   -2.8724   -0.5699 H   0  0  0  0  0  0  0  0  0  0  0  0
   -0.9400   -0.8263    0.0309 H   0  0  0  0  0  0  0  0  0  0  0  0
   -1.8302   -1.8924    1.1727 H   0  0  0  0  0  0  0  0  0  0  0  0
   -3.5748   -2.1325   -2.9395 H   0  0  0  0  0  0  0  0  0  0  0  0
   -5.7654   -0.8932   -3.0449 H   0  0  0  0  0  0  0  0  0  0  0  0
   -6.6114    0.2317   -0.9751 H   0  0  0  0  0  0  0  0  0  0  0  0
   -5.2471    0.0745    1.1034 H   0  0  0  0  0  0  0  0  0  0  0  0
   -0.5570   -1.5581    2.6805 H   0  0  0  0  0  0  0  0  0  0  0  0
    0.9925   -0.8225    2.8723 H   0  0  0  0  0  0  0  0  0  0  0  0
    0.0296   -3.5164    3.8844 H   0  0  0  0  0  0  0  0  0  0  0  0
    0.5968   -2.1500    4.8097 H   0  0  0  0  0  0  0  0  0  0  0  0
    4.0157   -4.7714    5.2553 H   0  0  0  0  0  0  0  0  0  0  0  0
    5.9700   -7.7151    6.0043 H   0  0  0  0  0  0  0  0  0  0  0  0
    4.8761   -6.8672    4.9110 H   0  0  0  0  0  0  0  0  0  0  0  0
    4.9000   -6.4767    6.6757 H   0  0  0  0  0  0  0  0  0  0  0  0
   10.3826   -3.9107    5.7217 H   0  0  0  0  0  0  0  0  0  0  0  0
    9.2592   -2.6001    6.0954 H   0  0  0  0  0  0  0  0  0  0  0  0
    9.9473   -2.8063    4.4321 H   0  0  0  0  0  0  0  0  0  0  0  0
  1  2  1  0  0  0  0
  1 29  1  0  0  0  0
  1 30  1  0  0  0  0
  1 31  1  0  0  0  0
  2  3  1  0  0  0  0
  3  4  1  0  0  0  0
  3 26  2  0  0  0  0
  4  5  2  0  0  0  0
  4 32  1  0  0  0  0
  5  6  1  0  0  0  0
  5 22  1  0  0  0  0
  6  7  1  0  0  0  0
  6 33  1  0  0  0  0
  6 34  1  0  0  0  0
  7  8  1  0  0  0  0
  7 21  1  0  0  0  0
  8  9  1  0  0  0  0
  8 35  1  0  0  0  0
  8 36  1  0  0  0  0
  9 10  1  0  0  0  0
  9 37  1  0  0  0  0
  9 38  1  0  0  0  0
 10 11  1  0  0  0  0
 10 20  1  0  0  0  0
 11 12  1  0  0  0  0
 11 39  1  0  0  0  0
 11 40  1  0  0  0  0
 12 13  1  0  0  0  0
 12 41  1  0  0  0  0
 12 42  1  0  0  0  0
 13 14  1  0  0  0  0
 14 15  1  0  0  0  0
 14 19  2  0  0  0  0
 15 16  2  0  0  0  0
 15 43  1  0  0  0  0
 16 17  1  0  0  0  0
 16 44  1  0  0  0  0
 17 18  2  0  0  0  0
 17 45  1  0  0  0  0
 18 19  1  0  0  0  0
 18 46  1  0  0  0  0
 20 21  1  0  0  0  0
 20 47  1  0  0  0  0
 20 48  1  0  0  0  0
 21 49  1  0  0  0  0
 21 50  1  0  0  0  0
 22 23  2  0  0  0  0
 22 51  1  0  0  0  0
 23 24  1  0  0  0  0
 23 26  1  0  0  0  0
 24 25  1  0  0  0  0
 25 52  1  0  0  0  0
 25 53  1  0  0  0  0
 25 54  1  0  0  0  0
 26 27  1  0  0  0  0
 27 28  1  0  0  0  0
 28 55  1  0  0  0  0
 28 56  1  0  0  0  0
 28 57  1  0  0  0  0
M  END
$$$$
