
 OpenBabel11072213583D

 44 46  0  0  0  0  0  0  0  0999 V2000
    4.2877    1.1270   -3.8591 C   0  0  0  0  0  0  0  0  0  0  0  0
    4.0167    0.3608   -2.6970 O   0  0  0  0  0  0  0  0  0  0  0  0
    3.1532    0.8883   -1.7726 C   0  0  0  0  0  0  0  0  0  0  0  0
    2.4750    2.1053   -1.9044 C   0  0  0  0  0  0  0  0  0  0  0  0
    1.6020    2.5514   -0.8967 C   0  0  0  0  0  0  0  0  0  0  0  0
    0.8445    3.8524   -1.0409 C   0  0  0  0  0  0  0  0  0  0  0  0
    1.1356    4.7434    0.0864 N   0  0  0  0  0  0  0  0  0  0  0  0
    0.4192    6.0137   -0.0058 C   0  0  0  0  0  0  0  0  0  0  0  0
   -1.0775    5.8644    0.0619 C   0  0  0  0  0  0  0  0  0  0  0  0
   -1.7245    5.2764    1.1428 C   0  0  0  0  0  0  0  0  0  0  0  0
   -3.1036    5.1565    1.0902 C   0  0  0  0  0  0  0  0  0  0  0  0
   -3.8710    5.5924    0.0611 N   0  0  0  0  0  0  0  0  0  0  0  0
   -3.2463    6.1969   -0.9710 C   0  0  0  0  0  0  0  0  0  0  0  0
   -4.0452    6.6747   -2.0069 N   0  0  0  0  0  0  0  0  0  0  0  0
   -3.8109    7.7230   -2.8859 C   0  0  0  0  0  0  0  0  0  0  0  0
   -2.6599    8.4197   -2.8142 N   0  0  0  0  0  0  0  0  0  0  0  0
   -2.4696    9.4320   -3.6736 C   0  0  0  0  0  0  0  0  0  0  0  0
   -3.3844    9.7798   -4.6290 C   0  0  0  0  0  0  0  0  0  0  0  0
   -4.5302    9.0230   -4.6377 C   0  0  0  0  0  0  0  0  0  0  0  0
   -4.7719    8.0110   -3.7774 N   0  0  0  0  0  0  0  0  0  0  0  0
   -1.8602    6.3157   -1.0010 C   0  0  0  0  0  0  0  0  0  0  0  0
    1.4111    1.7574    0.2446 C   0  0  0  0  0  0  0  0  0  0  0  0
    2.0830    0.5461    0.3877 C   0  0  0  0  0  0  0  0  0  0  0  0
    2.9469    0.1193   -0.6184 C   0  0  0  0  0  0  0  0  0  0  0  0
    3.6081   -1.0734   -0.4828 O   0  0  0  0  0  0  0  0  0  0  0  0
    4.9715    0.5480   -4.4875 H   0  0  0  0  0  0  0  0  0  0  0  0
    4.7858    2.0673   -3.6016 H   0  0  0  0  0  0  0  0  0  0  0  0
    3.3773    1.3059   -4.4400 H   0  0  0  0  0  0  0  0  0  0  0  0
    2.6039    2.7218   -2.7875 H   0  0  0  0  0  0  0  0  0  0  0  0
   -0.2214    3.5994   -1.0905 H   0  0  0  0  0  0  0  0  0  0  0  0
    1.1086    4.3411   -1.9869 H   0  0  0  0  0  0  0  0  0  0  0  0
    2.1368    4.9346    0.0844 H   0  0  0  0  0  0  0  0  0  0  0  0
    0.7184    6.5423   -0.9208 H   0  0  0  0  0  0  0  0  0  0  0  0
    0.7303    6.6586    0.8249 H   0  0  0  0  0  0  0  0  0  0  0  0
   -1.1656    4.9004    1.9927 H   0  0  0  0  0  0  0  0  0  0  0  0
   -3.6501    4.6902    1.9052 H   0  0  0  0  0  0  0  0  0  0  0  0
   -5.0245    6.4686   -1.9024 H   0  0  0  0  0  0  0  0  0  0  0  0
   -1.5315    9.9633   -3.5595 H   0  0  0  0  0  0  0  0  0  0  0  0
   -3.2119   10.5900   -5.3224 H   0  0  0  0  0  0  0  0  0  0  0  0
   -5.3160    9.2115   -5.3633 H   0  0  0  0  0  0  0  0  0  0  0  0
   -1.3675    6.7469   -1.8648 H   0  0  0  0  0  0  0  0  0  0  0  0
    0.7348    2.0938    1.0287 H   0  0  0  0  0  0  0  0  0  0  0  0
    1.9203   -0.0457    1.2824 H   0  0  0  0  0  0  0  0  0  0  0  0
    3.3403   -1.4868    0.3517 H   0  0  0  0  0  0  0  0  0  0  0  0
  1  2  1  0  0  0  0
  1 26  1  0  0  0  0
  1 27  1  0  0  0  0
  1 28  1  0  0  0  0
  2  3  1  0  0  0  0
  3  4  1  0  0  0  0
  3 24  2  0  0  0  0
  4  5  2  0  0  0  0
  4 29  1  0  0  0  0
  5  6  1  0  0  0  0
  5 22  1  0  0  0  0
  6  7  1  0  0  0  0
  6 30  1  0  0  0  0
  6 31  1  0  0  0  0
  7  8  1  0  0  0  0
  7 32  1  0  0  0  0
  8  9  1  0  0  0  0
  8 33  1  0  0  0  0
  8 34  1  0  0  0  0
  9 10  1  0  0  0  0
  9 21  2  0  0  0  0
 10 11  2  0  0  0  0
 10 35  1  0  0  0  0
 11 12  1  0  0  0  0
 11 36  1  0  0  0  0
 12 13  2  0  0  0  0
 13 14  1  0  0  0  0
 13 21  1  0  0  0  0
 14 15  1  0  0  0  0
 14 37  1  0  0  0  0
 15 16  1  0  0  0  0
 15 20  2  0  0  0  0
 16 17  2  0  0  0  0
 17 18  1  0  0  0  0
 17 38  1  0  0  0  0
 18 19  2  0  0  0  0
 18 39  1  0  0  0  0
 19 20  1  0  0  0  0
 19 40  1  0  0  0  0
 21 41  1  0  0  0  0
 22 23  2  0  0  0  0
 22 42  1  0  0  0  0
 23 24  1  0  0  0  0
 23 43  1  0  0  0  0
 24 25  1  0  0  0  0
 25 44  1  0  0  0  0
M  END
$$$$
