
 OpenBabel11072213583D

 41 43  0  0  1  0  0  0  0  0999 V2000
    3.4295   -0.1144    1.2386 C   0  0  0  0  0  0  0  0  0  0  0  0
    2.5019    0.1605    0.1878 O   0  0  0  0  0  0  0  0  0  0  0  0
    3.0519    0.2289   -1.0617 C   0  0  0  0  0  0  0  0  0  0  0  0
    4.0758   -0.6507   -1.4753 C   0  0  0  0  0  0  0  0  0  0  0  0
    4.7160   -0.5435   -2.7128 C   0  0  0  0  0  0  0  0  0  0  0  0
    5.7441   -1.3520   -2.9927 N   0  0  0  0  0  0  0  0  0  0  0  0
    6.3654   -1.1395   -4.1603 C   0  0  0  0  0  0  0  0  0  0  0  0
    6.0512   -0.2223   -5.0843 N   0  0  0  0  0  0  0  0  0  0  0  0
    4.9887    0.5621   -4.8251 C   0  0  0  0  0  0  0  0  0  0  0  0
    4.6692    1.5311   -5.7618 N   0  0  0  0  0  0  0  0  0  0  0  0
    5.6928    2.0985   -6.6279 C   0  0  0  0  0  0  0  0  0  0  0  0
    5.4649    3.6195   -6.6959 C   0  0  0  0  0  0  0  0  0  0  0  0
    4.0116    4.0083   -7.0277 C   0  0  0  0  0  0  0  0  0  0  0  0
    3.0138    3.2542   -6.1344 C   0  0  1  0  0  0  0  0  0  0  0  0
    1.6236    3.5906   -6.4527 N   0  0  0  0  0  0  0  0  0  0  0  0
    3.2992    1.7343   -6.2383 C   0  0  0  0  0  0  0  0  0  0  0  0
    4.2871    0.4444   -3.6045 C   0  0  0  0  0  0  0  0  0  0  0  0
    3.2333    1.2870   -3.1822 C   0  0  0  0  0  0  0  0  0  0  0  0
    2.5949    1.1873   -1.9512 C   0  0  0  0  0  0  0  0  0  0  0  0
    1.6210    2.1324   -1.8454 O   0  0  0  0  0  0  0  0  0  0  0  0
    0.7967    2.1953   -0.7019 C   0  0  0  0  0  0  0  0  0  0  0  0
    3.2019    0.5551    2.0730 H   0  0  0  0  0  0  0  0  0  0  0  0
    4.4778    0.0571    0.9670 H   0  0  0  0  0  0  0  0  0  0  0  0
    3.2935   -1.1469    1.5733 H   0  0  0  0  0  0  0  0  0  0  0  0
    4.4137   -1.4415   -0.8104 H   0  0  0  0  0  0  0  0  0  0  0  0
    7.2238   -1.7695   -4.3746 H   0  0  0  0  0  0  0  0  0  0  0  0
    5.6242    1.6606   -7.6313 H   0  0  0  0  0  0  0  0  0  0  0  0
    6.7072    1.9207   -6.2550 H   0  0  0  0  0  0  0  0  0  0  0  0
    6.1409    4.0667   -7.4311 H   0  0  0  0  0  0  0  0  0  0  0  0
    5.7214    4.0530   -5.7195 H   0  0  0  0  0  0  0  0  0  0  0  0
    3.8093    3.7901   -8.0819 H   0  0  0  0  0  0  0  0  0  0  0  0
    3.8894    5.0900   -6.8912 H   0  0  0  0  0  0  0  0  0  0  0  0
    3.1930    3.5954   -5.1099 H   0  0  0  0  0  0  0  0  0  0  0  0
    1.4370    3.4383   -7.4409 H   0  0  0  0  0  0  0  0  0  0  0  0
    1.4677    4.5827   -6.2751 H   0  0  0  0  0  0  0  0  0  0  0  0
    3.2186    1.4067   -7.2839 H   0  0  0  0  0  0  0  0  0  0  0  0
    2.5532    1.1413   -5.6971 H   0  0  0  0  0  0  0  0  0  0  0  0
    2.8900    2.0873   -3.8127 H   0  0  0  0  0  0  0  0  0  0  0  0
    0.1365    3.0598   -0.8412 H   0  0  0  0  0  0  0  0  0  0  0  0
    1.3803    2.3801    0.2018 H   0  0  0  0  0  0  0  0  0  0  0  0
    0.1632    1.3084   -0.6179 H   0  0  0  0  0  0  0  0  0  0  0  0
  1  2  1  0  0  0  0
  1 22  1  0  0  0  0
  1 23  1  0  0  0  0
  1 24  1  0  0  0  0
  2  3  1  0  0  0  0
  3  4  1  0  0  0  0
  3 19  2  0  0  0  0
  4  5  2  0  0  0  0
  4 25  1  0  0  0  0
  5  6  1  0  0  0  0
  5 17  1  0  0  0  0
  6  7  2  0  0  0  0
  7  8  1  0  0  0  0
  7 26  1  0  0  0  0
  8  9  2  0  0  0  0
  9 10  1  0  0  0  0
  9 17  1  0  0  0  0
 10 11  1  0  0  0  0
 10 16  1  0  0  0  0
 11 12  1  0  0  0  0
 11 27  1  0  0  0  0
 11 28  1  0  0  0  0
 12 13  1  0  0  0  0
 12 29  1  0  0  0  0
 12 30  1  0  0  0  0
 13 14  1  0  0  0  0
 13 31  1  0  0  0  0
 13 32  1  0  0  0  0
 14 15  1  0  0  0  0
 14 16  1  0  0  0  0
 14 33  1  1  0  0  0
 15 34  1  0  0  0  0
 15 35  1  0  0  0  0
 16 36  1  0  0  0  0
 16 37  1  0  0  0  0
 17 18  2  0  0  0  0
 18 19  1  0  0  0  0
 18 38  1  0  0  0  0
 19 20  1  0  0  0  0
 20 21  1  0  0  0  0
 21 39  1  0  0  0  0
 21 40  1  0  0  0  0
 21 41  1  0  0  0  0
M  END
$$$$
