
 OpenBabel11072213583D

 60 62  0  0  1  0  0  0  0  0999 V2000
    1.1093   -0.5471   -0.7763 C   0  0  0  0  0  0  0  0  0  0  0  0
    2.4431   -0.3878   -0.7561 C   0  0  0  0  0  0  0  0  0  0  0  0
    3.0991    0.5488   -1.7631 C   0  0  0  0  0  0  0  0  0  0  0  0
    3.3492    2.0196   -1.3019 C   0  0  0  0  0  0  0  0  0  0  0  0
    4.2620    2.1169   -0.0725 C   0  0  0  0  0  0  0  0  0  0  0  0
    4.0293    2.7774   -2.4585 C   0  0  0  0  0  0  0  0  0  0  0  0
    2.0256    2.7259   -0.9604 C   0  0  0  0  0  0  0  0  0  0  0  0
    3.2093   -1.1070    0.1402 N   0  0  0  0  0  0  0  0  0  0  0  0
    4.6596   -1.2068    0.2649 C   0  0  2  0  0  0  0  0  0  0  0  0
    5.1049   -2.6307   -0.0929 C   0  0  0  0  0  0  0  0  0  0  0  0
    4.6833   -3.6451    0.9622 C   0  0  0  0  0  0  0  0  0  0  0  0
    5.1304   -3.2391    2.3592 C   0  0  0  0  0  0  0  0  0  0  0  0
    4.7456   -1.8665    2.6731 N   0  0  0  0  0  0  0  0  0  0  0  0
    3.9331   -1.5228    3.7424 C   0  0  0  0  0  0  0  0  0  0  0  0
    3.0321   -0.5444    3.5303 N   0  0  0  0  0  0  0  0  0  0  0  0
    2.2038   -0.2378    4.5355 C   0  0  0  0  0  0  0  0  0  0  0  0
    2.1596   -0.8296    5.7328 N   0  0  0  0  0  0  0  0  0  0  0  0
    3.0692   -1.7886    5.9512 C   0  0  0  0  0  0  0  0  0  0  0  0
    3.0824   -2.4525    7.1755 C   0  0  0  0  0  0  0  0  0  0  0  0
    3.9985   -3.4825    7.5317 C   0  0  0  0  0  0  0  0  0  0  0  0
    3.6634   -3.9208    8.7736 O   0  0  0  0  0  0  0  0  0  0  0  0
    4.3832   -4.8888    9.4893 C   0  0  0  0  0  0  0  0  0  0  0  0
    4.9870   -3.8103    6.6150 C   0  0  0  0  0  0  0  0  0  0  0  0
    6.0129   -4.6886    6.5252 O   0  0  0  0  0  0  0  0  0  0  0  0
    6.3984   -5.6723    7.4433 C   0  0  0  0  0  0  0  0  0  0  0  0
    4.9972   -3.0909    5.4024 C   0  0  0  0  0  0  0  0  0  0  0  0
    4.0182   -2.1514    5.0070 C   0  0  0  0  0  0  0  0  0  0  0  0
    5.1132   -0.8371    1.6957 C   0  0  0  0  0  0  0  0  0  0  0  0
    0.4827   -0.0132   -1.4831 H   0  0  0  0  0  0  0  0  0  0  0  0
    0.6102   -1.2280   -0.0954 H   0  0  0  0  0  0  0  0  0  0  0  0
    2.4693    0.5808   -2.6653 H   0  0  0  0  0  0  0  0  0  0  0  0
    4.0361    0.1023   -2.1189 H   0  0  0  0  0  0  0  0  0  0  0  0
    5.2218    1.6209   -0.2417 H   0  0  0  0  0  0  0  0  0  0  0  0
    3.7806    1.6846    0.8082 H   0  0  0  0  0  0  0  0  0  0  0  0
    4.4858    3.1611    0.1745 H   0  0  0  0  0  0  0  0  0  0  0  0
    4.9567    2.2803   -2.7652 H   0  0  0  0  0  0  0  0  0  0  0  0
    4.2853    3.8019   -2.1654 H   0  0  0  0  0  0  0  0  0  0  0  0
    3.3738    2.8359   -3.3339 H   0  0  0  0  0  0  0  0  0  0  0  0
    1.5190    2.2525   -0.1121 H   0  0  0  0  0  0  0  0  0  0  0  0
    1.3401    2.7172   -1.8137 H   0  0  0  0  0  0  0  0  0  0  0  0
    2.2007    3.7717   -0.6835 H   0  0  0  0  0  0  0  0  0  0  0  0
    2.7077   -1.4625    0.9573 H   0  0  0  0  0  0  0  0  0  0  0  0
    5.1568   -0.5332   -0.4352 H   0  0  0  0  0  0  0  0  0  0  0  0
    6.1986   -2.6498   -0.1849 H   0  0  0  0  0  0  0  0  0  0  0  0
    4.6986   -2.9310   -1.0659 H   0  0  0  0  0  0  0  0  0  0  0  0
    5.1131   -4.6249    0.7220 H   0  0  0  0  0  0  0  0  0  0  0  0
    3.5940   -3.7660    0.9500 H   0  0  0  0  0  0  0  0  0  0  0  0
    6.2224   -3.3173    2.4322 H   0  0  0  0  0  0  0  0  0  0  0  0
    4.6944   -3.9739    3.0419 H   0  0  0  0  0  0  0  0  0  0  0  0
    1.4986    0.5680    4.3613 H   0  0  0  0  0  0  0  0  0  0  0  0
    2.3261   -2.1607    7.9071 H   0  0  0  0  0  0  0  0  0  0  0  0
    3.9448   -4.9526   10.4904 H   0  0  0  0  0  0  0  0  0  0  0  0
    5.4211   -4.5910    9.6300 H   0  0  0  0  0  0  0  0  0  0  0  0
    4.2553   -5.8742    9.0407 H   0  0  0  0  0  0  0  0  0  0  0  0
    7.2053   -6.2464    6.9733 H   0  0  0  0  0  0  0  0  0  0  0  0
    5.6004   -6.3859    7.6421 H   0  0  0  0  0  0  0  0  0  0  0  0
    6.8319   -5.2193    8.3338 H   0  0  0  0  0  0  0  0  0  0  0  0
    5.8272   -3.2845    4.7312 H   0  0  0  0  0  0  0  0  0  0  0  0
    6.2064   -0.7432    1.7032 H   0  0  0  0  0  0  0  0  0  0  0  0
    4.7335    0.1504    1.9742 H   0  0  0  0  0  0  0  0  0  0  0  0
  1  2  2  0  0  0  0
  1 29  1  0  0  0  0
  1 30  1  0  0  0  0
  2  3  1  0  0  0  0
  2  8  1  0  0  0  0
  3  4  1  0  0  0  0
  3 31  1  0  0  0  0
  3 32  1  0  0  0  0
  4  5  1  0  0  0  0
  4  6  1  0  0  0  0
  4  7  1  0  0  0  0
  5 33  1  0  0  0  0
  5 34  1  0  0  0  0
  5 35  1  0  0  0  0
  6 36  1  0  0  0  0
  6 37  1  0  0  0  0
  6 38  1  0  0  0  0
  7 39  1  0  0  0  0
  7 40  1  0  0  0  0
  7 41  1  0  0  0  0
  8  9  1  0  0  0  0
  8 42  1  0  0  0  0
  9 10  1  0  0  0  0
  9 28  1  0  0  0  0
  9 43  1  6  0  0  0
 10 11  1  0  0  0  0
 10 44  1  0  0  0  0
 10 45  1  0  0  0  0
 11 12  1  0  0  0  0
 11 46  1  0  0  0  0
 11 47  1  0  0  0  0
 12 13  1  0  0  0  0
 12 48  1  0  0  0  0
 12 49  1  0  0  0  0
 13 14  1  0  0  0  0
 13 28  1  0  0  0  0
 14 15  1  0  0  0  0
 14 27  2  0  0  0  0
 15 16  2  0  0  0  0
 16 17  1  0  0  0  0
 16 50  1  0  0  0  0
 17 18  2  0  0  0  0
 18 19  1  0  0  0  0
 18 27  1  0  0  0  0
 19 20  2  0  0  0  0
 19 51  1  0  0  0  0
 20 21  1  0  0  0  0
 20 23  1  0  0  0  0
 21 22  1  0  0  0  0
 22 52  1  0  0  0  0
 22 53  1  0  0  0  0
 22 54  1  0  0  0  0
 23 24  1  0  0  0  0
 23 26  2  0  0  0  0
 24 25  1  0  0  0  0
 25 55  1  0  0  0  0
 25 56  1  0  0  0  0
 25 57  1  0  0  0  0
 26 27  1  0  0  0  0
 26 58  1  0  0  0  0
 28 59  1  0  0  0  0
 28 60  1  0  0  0  0
M  END
$$$$
