
 OpenBabel11072213583D

 65 68  0  0  0  0  0  0  0  0999 V2000
    3.2510   -0.8981   -0.8636 C   0  0  0  0  0  0  0  0  0  0  0  0
    2.5045   -0.0742    0.0311 O   0  0  0  0  0  0  0  0  0  0  0  0
    3.1028    1.0955    0.4216 C   0  0  0  0  0  0  0  0  0  0  0  0
    4.0637    1.7428   -0.3774 C   0  0  0  0  0  0  0  0  0  0  0  0
    4.7146    2.9074    0.0186 C   0  0  0  0  0  0  0  0  0  0  0  0
    5.6551    3.4236   -0.7842 N   0  0  0  0  0  0  0  0  0  0  0  0
    6.3190    4.5129   -0.3716 C   0  0  0  0  0  0  0  0  0  0  0  0
    7.3177    5.0189   -1.1526 N   0  0  0  0  0  0  0  0  0  0  0  0
    7.6695    4.4885   -2.4491 C   0  0  0  0  0  0  0  0  0  0  0  0
    9.1745    4.7276   -2.5216 C   0  0  0  0  0  0  0  0  0  0  0  0
    9.3738    6.0072   -1.7195 C   0  0  0  0  0  0  0  0  0  0  0  0
    8.3062    5.9385   -0.6238 C   0  0  0  0  0  0  0  0  0  0  0  0
    6.0645    5.1191    0.7913 N   0  0  0  0  0  0  0  0  0  0  0  0
    5.1010    4.6268    1.5871 C   0  0  0  0  0  0  0  0  0  0  0  0
    4.7869    5.3211    2.7806 N   0  0  0  0  0  0  0  0  0  0  0  0
    5.7568    6.3560    3.1348 C   0  0  0  0  0  0  0  0  0  0  0  0
    5.4073    6.9733    4.4880 C   0  0  0  0  0  0  0  0  0  0  0  0
    5.6243    6.0163    5.6658 C   0  0  0  0  0  0  0  0  0  0  0  0
    5.3006    6.7241    6.9831 C   0  0  0  0  0  0  0  0  0  0  0  0
    5.3874    5.7660    8.1769 C   0  0  0  0  0  0  0  0  0  0  0  0
    5.1190    6.4318    9.4631 N   0  0  0  0  0  0  0  0  0  0  0  0
    5.2921    5.4912   10.5850 C   0  0  0  0  0  0  0  0  0  0  0  0
    3.9542    4.7860   10.7036 C   0  0  0  0  0  0  0  0  0  0  0  0
    2.9591    5.8934   10.4183 C   0  0  0  0  0  0  0  0  0  0  0  0
    3.7341    6.9197    9.5986 C   0  0  0  0  0  0  0  0  0  0  0  0
    4.3738    3.4791    1.2365 C   0  0  0  0  0  0  0  0  0  0  0  0
    3.3640    2.8700    2.0261 C   0  0  0  0  0  0  0  0  0  0  0  0
    2.7362    1.6792    1.6382 C   0  0  0  0  0  0  0  0  0  0  0  0
    1.8359    1.2512    2.5745 O   0  0  0  0  0  0  0  0  0  0  0  0
    1.1333    0.0365    2.3698 C   0  0  0  0  0  0  0  0  0  0  0  0
    2.8419   -1.9111   -0.8069 H   0  0  0  0  0  0  0  0  0  0  0  0
    4.3094   -0.9560   -0.5843 H   0  0  0  0  0  0  0  0  0  0  0  0
    3.1368   -0.5465   -1.8941 H   0  0  0  0  0  0  0  0  0  0  0  0
    4.3389    1.3445   -1.3491 H   0  0  0  0  0  0  0  0  0  0  0  0
    7.1521    5.0670   -3.2233 H   0  0  0  0  0  0  0  0  0  0  0  0
    7.4399    3.4275   -2.5904 H   0  0  0  0  0  0  0  0  0  0  0  0
    9.5347    4.8145   -3.5509 H   0  0  0  0  0  0  0  0  0  0  0  0
    9.7082    3.8991   -2.0405 H   0  0  0  0  0  0  0  0  0  0  0  0
    9.2057    6.8828   -2.3570 H   0  0  0  0  0  0  0  0  0  0  0  0
   10.3846    6.0825   -1.3057 H   0  0  0  0  0  0  0  0  0  0  0  0
    7.8782    6.9305   -0.4430 H   0  0  0  0  0  0  0  0  0  0  0  0
    8.7484    5.5664    0.3079 H   0  0  0  0  0  0  0  0  0  0  0  0
    4.6501    4.6530    3.5298 H   0  0  0  0  0  0  0  0  0  0  0  0
    5.7374    7.1548    2.3828 H   0  0  0  0  0  0  0  0  0  0  0  0
    6.7730    5.9447    3.1780 H   0  0  0  0  0  0  0  0  0  0  0  0
    4.3654    7.3173    4.4802 H   0  0  0  0  0  0  0  0  0  0  0  0
    6.0374    7.8589    4.6355 H   0  0  0  0  0  0  0  0  0  0  0  0
    6.6618    5.6613    5.6771 H   0  0  0  0  0  0  0  0  0  0  0  0
    4.9811    5.1348    5.5633 H   0  0  0  0  0  0  0  0  0  0  0  0
    4.2935    7.1436    6.8981 H   0  0  0  0  0  0  0  0  0  0  0  0
    5.9900    7.5644    7.1285 H   0  0  0  0  0  0  0  0  0  0  0  0
    6.4104    5.3668    8.2030 H   0  0  0  0  0  0  0  0  0  0  0  0
    4.7166    4.9139    8.0146 H   0  0  0  0  0  0  0  0  0  0  0  0
    5.4927    6.0656   11.4986 H   0  0  0  0  0  0  0  0  0  0  0  0
    6.1271    4.7956   10.4517 H   0  0  0  0  0  0  0  0  0  0  0  0
    3.7989    4.3321   11.6860 H   0  0  0  0  0  0  0  0  0  0  0  0
    3.8619    3.9954    9.9493 H   0  0  0  0  0  0  0  0  0  0  0  0
    2.6164    6.3467   11.3555 H   0  0  0  0  0  0  0  0  0  0  0  0
    2.0833    5.5146    9.8823 H   0  0  0  0  0  0  0  0  0  0  0  0
    3.7553    7.8744   10.1384 H   0  0  0  0  0  0  0  0  0  0  0  0
    3.2241    7.1195    8.6526 H   0  0  0  0  0  0  0  0  0  0  0  0
    3.0667    3.3156    2.9724 H   0  0  0  0  0  0  0  0  0  0  0  0
    0.5559   -0.1585    3.2798 H   0  0  0  0  0  0  0  0  0  0  0  0
    1.8124   -0.8108    2.2391 H   0  0  0  0  0  0  0  0  0  0  0  0
    0.4219    0.1283    1.5439 H   0  0  0  0  0  0  0  0  0  0  0  0
  1  2  1  0  0  0  0
  1 31  1  0  0  0  0
  1 32  1  0  0  0  0
  1 33  1  0  0  0  0
  2  3  1  0  0  0  0
  3  4  1  0  0  0  0
  3 28  2  0  0  0  0
  4  5  2  0  0  0  0
  4 34  1  0  0  0  0
  5  6  1  0  0  0  0
  5 26  1  0  0  0  0
  6  7  2  0  0  0  0
  7  8  1  0  0  0  0
  7 13  1  0  0  0  0
  8  9  1  0  0  0  0
  8 12  1  0  0  0  0
  9 10  1  0  0  0  0
  9 35  1  0  0  0  0
  9 36  1  0  0  0  0
 10 11  1  0  0  0  0
 10 37  1  0  0  0  0
 10 38  1  0  0  0  0
 11 12  1  0  0  0  0
 11 39  1  0  0  0  0
 11 40  1  0  0  0  0
 12 41  1  0  0  0  0
 12 42  1  0  0  0  0
 13 14  2  0  0  0  0
 14 15  1  0  0  0  0
 14 26  1  0  0  0  0
 15 16  1  0  0  0  0
 15 43  1  0  0  0  0
 16 17  1  0  0  0  0
 16 44  1  0  0  0  0
 16 45  1  0  0  0  0
 17 18  1  0  0  0  0
 17 46  1  0  0  0  0
 17 47  1  0  0  0  0
 18 19  1  0  0  0  0
 18 48  1  0  0  0  0
 18 49  1  0  0  0  0
 19 20  1  0  0  0  0
 19 50  1  0  0  0  0
 19 51  1  0  0  0  0
 20 21  1  0  0  0  0
 20 52  1  0  0  0  0
 20 53  1  0  0  0  0
 21 22  1  0  0  0  0
 21 25  1  0  0  0  0
 22 23  1  0  0  0  0
 22 54  1  0  0  0  0
 22 55  1  0  0  0  0
 23 24  1  0  0  0  0
 23 56  1  0  0  0  0
 23 57  1  0  0  0  0
 24 25  1  0  0  0  0
 24 58  1  0  0  0  0
 24 59  1  0  0  0  0
 25 60  1  0  0  0  0
 25 61  1  0  0  0  0
 26 27  2  0  0  0  0
 27 28  1  0  0  0  0
 27 62  1  0  0  0  0
 28 29  1  0  0  0  0
 29 30  1  0  0  0  0
 30 63  1  0  0  0  0
 30 64  1  0  0  0  0
 30 65  1  0  0  0  0
M  END
$$$$
